version 2
run General-0-20200530-15:09:36-11744
attr configname General
attr datetime 20200530-15:09:36
attr experiment General
attr inifile omnetpp.ini
attr iterationvars ""
attr iterationvarsf ""
attr measurement ""
attr network Scenario
attr processid 11744
attr repetition 0
attr replication #0
attr resultdir results
attr runnumber 0
attr seedset 0
param Scenario.node[0].numPingApps 1
param Scenario.node[0].pingApp[0].startTime uniform(0s,2s)
param Scenario.node[0].pingApp[0].printPing true
param Scenario.node[0].pingApp[0].destAddr "\"10.0.0.100\""
param Scenario.node[0].pingApp[0].packetSize 1000B
param Scenario.node[0].pingApp[0].sendInterval 0.3s
param Scenario.node[*].pingApp[0].printPing true
param Scenario.node[0].numUdpApps 1
param Scenario.node[0].udpApp[0].typename "\"UDPBasicApp\""
param Scenario.node[0].udpApp[0].destAddresses "\"10.0.0.100\""
param Scenario.node[0].udpApp[0].localPort 5000
param Scenario.node[0].udpApp[0].destPort 5000
param Scenario.node[0].udpApp[0].messageLength 1000B
param Scenario.node[0].udpApp[0].sendInterval 0.5s
param Scenario.node[0].udpApp[0].packetName "\"UDPData\""
param Scenario.node[1].numUdpApps 1
param Scenario.node[1].udpApp[0].typename "\"UDPSink\""
param Scenario.node[1].udpApp[0].localPort 5000
param Scenario.node[*].wlan[0].mgmtType "\"Ieee80211MgmtAdhoc\""
param Scenario.node[*].wlan[0].radio.transmitter.power 2mW
param Scenario.node[*].wlan[*].opMode "\"a\""
param Scenario.node[*].wlan[*].bitrate 6Mbps
param Scenario.radioMedium.pathLossType "\"FreeSpacePathLoss\""
param Scenario.node[*].ac_wlan.interfaces "\"wlan0\""
param Scenario.node[*].ac_wlan.addressBase "\"10.0.0.0\""
param Scenario.node[*].ac_wlan.netmask "\"255.255.0.0\""
param Scenario.node[*].ac_wlan.mcastGroups "\"224.0.0.1\""
param Scenario.node[*].mobilityType "\"VeinsInetMobility\""
param Scenario.node[*].mobility.constraintAreaMinX 0m
param Scenario.node[*].mobility.constraintAreaMinY 0m
param Scenario.node[*].mobility.constraintAreaMinZ 0m
param Scenario.node[*].mobility.constraintAreaMaxX 1000m
param Scenario.node[*].mobility.constraintAreaMaxY 1000m
param Scenario.node[*].mobility.constraintAreaMaxZ 0m
param Scenario.manager.numVehicles 10
param Scenario.manager.updateInterval 0.1s
param Scenario.manager.host "\"localhost\""
param Scenario.manager.port 9999
param Scenario.manager.autoShutdown true
param Scenario.manager.launchConfig "xmldoc(\"square.launchd.xml\")"
param Scenario.manager.moduleType "\"final_year_simulation.simulations.Car2\""
param Scenario.node[*].wlan[*].radio.displayCommunicationRange true
param Scenario.node[*].wlan[*].radio.displayInterferenceRange true

vector 0 Scenario.node[0].wlan[0].radio radioMode:vector ETV
attr interpolationmode sample-hold
attr source radioModeChanged
attr title "Radio mode, vector"
vector 1 Scenario.node[0].wlan[0].radio radioChannel:vector ETV
attr interpolationmode sample-hold
attr source radioChannelChanged
attr title "Radio channel, vector"
vector 2 Scenario.node[0].wlan[0].radio receptionState:vector ETV
attr interpolationmode sample-hold
attr source receptionStateChanged
attr title "Radio reception state, vector"
vector 3 Scenario.node[0].wlan[0].mac.dcf.channelAccess.contention state:vector ETV
attr interpolationmode none
attr source stateChanged
attr title "contention state, vector"
vector 4 Scenario.node[0].wlan[0].mac.hcf.edca.edcaf[0].contention state:vector ETV
attr interpolationmode none
attr source stateChanged
attr title "contention state, vector"
vector 5 Scenario.node[0].wlan[0].mac.hcf.edca.edcaf[1].contention state:vector ETV
attr interpolationmode none
attr source stateChanged
attr title "contention state, vector"
vector 6 Scenario.node[0].wlan[0].mac.hcf.edca.edcaf[2].contention state:vector ETV
attr interpolationmode none
attr source stateChanged
attr title "contention state, vector"
vector 7 Scenario.node[0].wlan[0].mac.hcf.edca.edcaf[3].contention state:vector ETV
attr interpolationmode none
attr source stateChanged
attr title "contention state, vector"
vector 8 Scenario.node[0].udpApp[0] sentPk:vector(packetBytes) ETV
attr interpolationmode none
attr source sentPk
attr title "packets sent, vector(packetBytes)"
vector 9 Scenario.node[0].udp sentPk:vector(packetBytes) ETV
attr interpolationmode none
attr source sentPk
attr title "packets sent, vector(packetBytes)"
vector 10 Scenario.node[0].pingApp[0] pingTxSeq:vector ETV
attr interpolationmode none
attr title "ping tx seq, vector"
vector 11 Scenario.node[1].wlan[0].radio radioMode:vector ETV
attr interpolationmode sample-hold
attr source radioModeChanged
attr title "Radio mode, vector"
vector 12 Scenario.node[1].wlan[0].radio radioChannel:vector ETV
attr interpolationmode sample-hold
attr source radioChannelChanged
attr title "Radio channel, vector"
vector 13 Scenario.node[1].wlan[0].radio receptionState:vector ETV
attr interpolationmode sample-hold
attr source receptionStateChanged
attr title "Radio reception state, vector"
vector 14 Scenario.node[1].wlan[0].mac.dcf.channelAccess.contention state:vector ETV
attr interpolationmode none
attr source stateChanged
attr title "contention state, vector"
vector 15 Scenario.node[1].wlan[0].mac.hcf.edca.edcaf[0].contention state:vector ETV
attr interpolationmode none
attr source stateChanged
attr title "contention state, vector"
vector 16 Scenario.node[1].wlan[0].mac.hcf.edca.edcaf[1].contention state:vector ETV
attr interpolationmode none
attr source stateChanged
attr title "contention state, vector"
vector 17 Scenario.node[1].wlan[0].mac.hcf.edca.edcaf[2].contention state:vector ETV
attr interpolationmode none
attr source stateChanged
attr title "contention state, vector"
vector 18 Scenario.node[1].wlan[0].mac.hcf.edca.edcaf[3].contention state:vector ETV
attr interpolationmode none
attr source stateChanged
attr title "contention state, vector"
vector 19 Scenario.node[0].wlan[0].mac rcvdPkFromHL:vector(packetBytes) ETV
attr interpolationmode none
attr source packetReceivedFromUpper
attr title "packets received from higher layer, vector(packetBytes)"
vector 20 Scenario.node[0].wlan[0].mac sentDownPk:vector(packetBytes) ETV
attr interpolationmode none
attr source packetSentToLower
attr title "packets sent to lower layer, vector(packetBytes)"
vector 21 Scenario.node[0].wlan[0].radio transmissionState:vector ETV
attr interpolationmode sample-hold
attr source transmissionStateChanged
attr title "Radio transmission state, vector"
vector 22 Scenario.node[1].wlan[0].mac rcvdPkFromLL:vector(packetBytes) ETV
attr interpolationmode none
attr source packetReceivedFromLower
attr title "packets received from lower layer, vector(packetBytes)"
vector 23 Scenario.node[1].wlan[0].mac passedUpPk:vector(packetBytes) ETV
attr interpolationmode none
attr source packetSentToUpper
attr title "packets passed to higher layer, vector(packetBytes)"
vector 24 Scenario.node[1].wlan[0].mac rcvdPkFromHL:vector(packetBytes) ETV
attr interpolationmode none
attr source packetReceivedFromUpper
attr title "packets received from higher layer, vector(packetBytes)"
vector 25 Scenario.node[1].wlan[0].mac sentDownPk:vector(packetBytes) ETV
attr interpolationmode none
attr source packetSentToLower
attr title "packets sent to lower layer, vector(packetBytes)"
vector 26 Scenario.node[1].wlan[0].radio transmissionState:vector ETV
attr interpolationmode sample-hold
attr source transmissionStateChanged
attr title "Radio transmission state, vector"
vector 27 Scenario.node[0].wlan[0].mac rcvdPkFromLL:vector(packetBytes) ETV
attr interpolationmode none
attr source packetReceivedFromLower
attr title "packets received from lower layer, vector(packetBytes)"
vector 28 Scenario.node[0].wlan[0].mac passedUpPk:vector(packetBytes) ETV
attr interpolationmode none
attr source packetSentToUpper
attr title "packets passed to higher layer, vector(packetBytes)"
vector 29 Scenario.node[0].networkLayer.arp sentReq:vector ETV
attr title "ARP request sent, vector"
vector 30 Scenario.node[1].networkLayer.arp sentReply:vector ETV
attr title "ARP replies sent, vector"
vector 31 Scenario.node[1].lo0.lo rcvdPkFromHL:vector(packetBytes) ETV
attr interpolationmode none
attr source packetReceivedFromUpper
attr title "packets received from higher layer, vector(packetBytes)"
vector 32 Scenario.node[1].lo0.lo passedUpPk:vector(packetBytes) ETV
attr interpolationmode none
attr source packetSentToUpper
attr title "packets passed to higher layer, vector(packetBytes)"
vector 33 Scenario.node[1].udp rcvdPk:vector(packetBytes) ETV
attr interpolationmode none
attr source rcvdPk
attr title "packets received, vector(packetBytes)"
vector 34 Scenario.node[1].udp passedUpPk:vector(count) ETV
attr interpolationmode none
attr title "packets passed up, vector(count)"
vector 35 Scenario.node[1].udpApp[0] rcvdPk:vector(packetBytes) ETV
attr interpolationmode none
attr source rcvdPk
attr title "packets received, vector(packetBytes)"
vector 36 Scenario.node[1].udpApp[0] throughput:vector ETV
attr source throughput(rcvdPk)
attr title "throughput, vector"
attr unit bps
vector 37 Scenario.node[1].udpApp[0] endToEndDelay:vector ETV
attr interpolationmode none
attr source messageAge(rcvdPk)
attr title "end-to-end delay, vector"
attr unit s
vector 38 Scenario.node[1].udpApp[0] rcvdPkSeqNo:vector ETV
attr interpolationmode none
attr source appPkSeqNo(rcvdPk)
attr title "received packet sequence number, vector"
vector 39 Scenario.node[0].pingApp[0] pingRxSeq:vector ETV
attr interpolationmode none
attr title "ping rx seq, vector"
vector 40 Scenario.node[0].pingApp[0] rtt:vector ETV
attr interpolationmode none
attr title "ping round-trip time, vector"
attr unit s
vector 41 Scenario.node[0].pingApp[0] numLost:vector ETV
attr interpolationmode none
attr title "pings lost, vector"
vector 42 Scenario.node[2].wlan[0].radio radioMode:vector ETV
attr interpolationmode sample-hold
attr source radioModeChanged
attr title "Radio mode, vector"
vector 43 Scenario.node[2].wlan[0].radio radioChannel:vector ETV
attr interpolationmode sample-hold
attr source radioChannelChanged
attr title "Radio channel, vector"
vector 44 Scenario.node[2].wlan[0].radio receptionState:vector ETV
attr interpolationmode sample-hold
attr source receptionStateChanged
attr title "Radio reception state, vector"
vector 45 Scenario.node[2].wlan[0].mac.dcf.channelAccess.contention state:vector ETV
attr interpolationmode none
attr source stateChanged
attr title "contention state, vector"
vector 46 Scenario.node[2].wlan[0].mac.hcf.edca.edcaf[0].contention state:vector ETV
attr interpolationmode none
attr source stateChanged
attr title "contention state, vector"
vector 47 Scenario.node[2].wlan[0].mac.hcf.edca.edcaf[1].contention state:vector ETV
attr interpolationmode none
attr source stateChanged
attr title "contention state, vector"
vector 48 Scenario.node[2].wlan[0].mac.hcf.edca.edcaf[2].contention state:vector ETV
attr interpolationmode none
attr source stateChanged
attr title "contention state, vector"
vector 49 Scenario.node[2].wlan[0].mac.hcf.edca.edcaf[3].contention state:vector ETV
attr interpolationmode none
attr source stateChanged
attr title "contention state, vector"
vector 50 Scenario.node[3].wlan[0].radio radioMode:vector ETV
attr interpolationmode sample-hold
attr source radioModeChanged
attr title "Radio mode, vector"
vector 51 Scenario.node[3].wlan[0].radio radioChannel:vector ETV
attr interpolationmode sample-hold
attr source radioChannelChanged
attr title "Radio channel, vector"
vector 52 Scenario.node[3].wlan[0].radio receptionState:vector ETV
attr interpolationmode sample-hold
attr source receptionStateChanged
attr title "Radio reception state, vector"
vector 53 Scenario.node[3].wlan[0].mac.dcf.channelAccess.contention state:vector ETV
attr interpolationmode none
attr source stateChanged
attr title "contention state, vector"
vector 54 Scenario.node[3].wlan[0].mac.hcf.edca.edcaf[0].contention state:vector ETV
attr interpolationmode none
attr source stateChanged
attr title "contention state, vector"
vector 55 Scenario.node[3].wlan[0].mac.hcf.edca.edcaf[1].contention state:vector ETV
attr interpolationmode none
attr source stateChanged
attr title "contention state, vector"
vector 56 Scenario.node[3].wlan[0].mac.hcf.edca.edcaf[2].contention state:vector ETV
attr interpolationmode none
attr source stateChanged
attr title "contention state, vector"
vector 57 Scenario.node[3].wlan[0].mac.hcf.edca.edcaf[3].contention state:vector ETV
attr interpolationmode none
attr source stateChanged
attr title "contention state, vector"
vector 58 Scenario.node[3].wlan[0].mac rcvdPkFromLL:vector(packetBytes) ETV
attr interpolationmode none
attr source packetReceivedFromLower
attr title "packets received from lower layer, vector(packetBytes)"
vector 59 Scenario.node[2].wlan[0].mac rcvdPkFromLL:vector(packetBytes) ETV
attr interpolationmode none
attr source packetReceivedFromLower
attr title "packets received from lower layer, vector(packetBytes)"
vector 60 Scenario.node[2].wlan[0].mac passedUpPk:vector(packetBytes) ETV
attr interpolationmode none
attr source packetSentToUpper
attr title "packets passed to higher layer, vector(packetBytes)"
vector 61 Scenario.node[3].wlan[0].mac passedUpPk:vector(packetBytes) ETV
attr interpolationmode none
attr source packetSentToUpper
attr title "packets passed to higher layer, vector(packetBytes)"
vector 62 Scenario.node[4].wlan[0].radio radioMode:vector ETV
attr interpolationmode sample-hold
attr source radioModeChanged
attr title "Radio mode, vector"
vector 63 Scenario.node[4].wlan[0].radio radioChannel:vector ETV
attr interpolationmode sample-hold
attr source radioChannelChanged
attr title "Radio channel, vector"
vector 64 Scenario.node[4].wlan[0].radio receptionState:vector ETV
attr interpolationmode sample-hold
attr source receptionStateChanged
attr title "Radio reception state, vector"
vector 65 Scenario.node[4].wlan[0].mac.dcf.channelAccess.contention state:vector ETV
attr interpolationmode none
attr source stateChanged
attr title "contention state, vector"
vector 66 Scenario.node[4].wlan[0].mac.hcf.edca.edcaf[0].contention state:vector ETV
attr interpolationmode none
attr source stateChanged
attr title "contention state, vector"
vector 67 Scenario.node[4].wlan[0].mac.hcf.edca.edcaf[1].contention state:vector ETV
attr interpolationmode none
attr source stateChanged
attr title "contention state, vector"
vector 68 Scenario.node[4].wlan[0].mac.hcf.edca.edcaf[2].contention state:vector ETV
attr interpolationmode none
attr source stateChanged
attr title "contention state, vector"
vector 69 Scenario.node[4].wlan[0].mac.hcf.edca.edcaf[3].contention state:vector ETV
attr interpolationmode none
attr source stateChanged
attr title "contention state, vector"
vector 70 Scenario.node[4].wlan[0].mac rcvdPkFromLL:vector(packetBytes) ETV
attr interpolationmode none
attr source packetReceivedFromLower
attr title "packets received from lower layer, vector(packetBytes)"
vector 71 Scenario.node[4].wlan[0].mac passedUpPk:vector(packetBytes) ETV
attr interpolationmode none
attr source packetSentToUpper
attr title "packets passed to higher layer, vector(packetBytes)"
vector 72 Scenario.node[3].wlan[0].mac rcvdPkFromHL:vector(packetBytes) ETV
attr interpolationmode none
attr source packetReceivedFromUpper
attr title "packets received from higher layer, vector(packetBytes)"
vector 73 Scenario.node[3].wlan[0].mac sentDownPk:vector(packetBytes) ETV
attr interpolationmode none
attr source packetSentToLower
attr title "packets sent to lower layer, vector(packetBytes)"
vector 74 Scenario.node[3].wlan[0].radio transmissionState:vector ETV
attr interpolationmode sample-hold
attr source transmissionStateChanged
attr title "Radio transmission state, vector"
vector 75 Scenario.node[2].wlan[0].mac rcvdPkFromHL:vector(packetBytes) ETV
attr interpolationmode none
attr source packetReceivedFromUpper
attr title "packets received from higher layer, vector(packetBytes)"
vector 76 Scenario.node[2].wlan[0].mac sentDownPk:vector(packetBytes) ETV
attr interpolationmode none
attr source packetSentToLower
attr title "packets sent to lower layer, vector(packetBytes)"
vector 77 Scenario.node[2].wlan[0].radio transmissionState:vector ETV
attr interpolationmode sample-hold
attr source transmissionStateChanged
attr title "Radio transmission state, vector"
vector 78 Scenario.node[4].wlan[0].mac rcvdPkFromHL:vector(packetBytes) ETV
attr interpolationmode none
attr source packetReceivedFromUpper
attr title "packets received from higher layer, vector(packetBytes)"
vector 79 Scenario.node[4].wlan[0].mac sentDownPk:vector(packetBytes) ETV
attr interpolationmode none
attr source packetSentToLower
attr title "packets sent to lower layer, vector(packetBytes)"
vector 80 Scenario.node[4].wlan[0].radio transmissionState:vector ETV
attr interpolationmode sample-hold
attr source transmissionStateChanged
attr title "Radio transmission state, vector"
vector 81 Scenario.node[5].wlan[0].radio radioMode:vector ETV
attr interpolationmode sample-hold
attr source radioModeChanged
attr title "Radio mode, vector"
vector 82 Scenario.node[5].wlan[0].radio radioChannel:vector ETV
attr interpolationmode sample-hold
attr source radioChannelChanged
attr title "Radio channel, vector"
vector 83 Scenario.node[5].wlan[0].radio receptionState:vector ETV
attr interpolationmode sample-hold
attr source receptionStateChanged
attr title "Radio reception state, vector"
vector 84 Scenario.node[5].wlan[0].mac.dcf.channelAccess.contention state:vector ETV
attr interpolationmode none
attr source stateChanged
attr title "contention state, vector"
vector 85 Scenario.node[5].wlan[0].mac.hcf.edca.edcaf[0].contention state:vector ETV
attr interpolationmode none
attr source stateChanged
attr title "contention state, vector"
vector 86 Scenario.node[5].wlan[0].mac.hcf.edca.edcaf[1].contention state:vector ETV
attr interpolationmode none
attr source stateChanged
attr title "contention state, vector"
vector 87 Scenario.node[5].wlan[0].mac.hcf.edca.edcaf[2].contention state:vector ETV
attr interpolationmode none
attr source stateChanged
attr title "contention state, vector"
vector 88 Scenario.node[5].wlan[0].mac.hcf.edca.edcaf[3].contention state:vector ETV
attr interpolationmode none
attr source stateChanged
attr title "contention state, vector"
vector 89 Scenario.node[5].wlan[0].mac rcvdPkFromLL:vector(packetBytes) ETV
attr interpolationmode none
attr source packetReceivedFromLower
attr title "packets received from lower layer, vector(packetBytes)"
vector 90 Scenario.node[6].wlan[0].radio radioMode:vector ETV
attr interpolationmode sample-hold
attr source radioModeChanged
attr title "Radio mode, vector"
vector 91 Scenario.node[6].wlan[0].radio radioChannel:vector ETV
attr interpolationmode sample-hold
attr source radioChannelChanged
attr title "Radio channel, vector"
vector 92 Scenario.node[6].wlan[0].radio receptionState:vector ETV
attr interpolationmode sample-hold
attr source receptionStateChanged
attr title "Radio reception state, vector"
vector 93 Scenario.node[6].wlan[0].mac.dcf.channelAccess.contention state:vector ETV
attr interpolationmode none
attr source stateChanged
attr title "contention state, vector"
vector 94 Scenario.node[6].wlan[0].mac.hcf.edca.edcaf[0].contention state:vector ETV
attr interpolationmode none
attr source stateChanged
attr title "contention state, vector"
vector 95 Scenario.node[6].wlan[0].mac.hcf.edca.edcaf[1].contention state:vector ETV
attr interpolationmode none
attr source stateChanged
attr title "contention state, vector"
vector 96 Scenario.node[6].wlan[0].mac.hcf.edca.edcaf[2].contention state:vector ETV
attr interpolationmode none
attr source stateChanged
attr title "contention state, vector"
vector 97 Scenario.node[6].wlan[0].mac.hcf.edca.edcaf[3].contention state:vector ETV
attr interpolationmode none
attr source stateChanged
attr title "contention state, vector"
vector 98 Scenario.node[6].wlan[0].mac rcvdPkFromLL:vector(packetBytes) ETV
attr interpolationmode none
attr source packetReceivedFromLower
attr title "packets received from lower layer, vector(packetBytes)"
vector 99 Scenario.node[5].wlan[0].mac passedUpPk:vector(packetBytes) ETV
attr interpolationmode none
attr source packetSentToUpper
attr title "packets passed to higher layer, vector(packetBytes)"
vector 100 Scenario.node[6].wlan[0].mac passedUpPk:vector(packetBytes) ETV
attr interpolationmode none
attr source packetSentToUpper
attr title "packets passed to higher layer, vector(packetBytes)"
vector 101 Scenario.node[5].wlan[0].mac rcvdPkFromHL:vector(packetBytes) ETV
attr interpolationmode none
attr source packetReceivedFromUpper
attr title "packets received from higher layer, vector(packetBytes)"
vector 102 Scenario.node[5].wlan[0].mac sentDownPk:vector(packetBytes) ETV
attr interpolationmode none
attr source packetSentToLower
attr title "packets sent to lower layer, vector(packetBytes)"
vector 103 Scenario.node[5].wlan[0].radio transmissionState:vector ETV
attr interpolationmode sample-hold
attr source transmissionStateChanged
attr title "Radio transmission state, vector"
vector 104 Scenario.node[6].wlan[0].mac rcvdPkFromHL:vector(packetBytes) ETV
attr interpolationmode none
attr source packetReceivedFromUpper
attr title "packets received from higher layer, vector(packetBytes)"
vector 105 Scenario.node[6].wlan[0].mac sentDownPk:vector(packetBytes) ETV
attr interpolationmode none
attr source packetSentToLower
attr title "packets sent to lower layer, vector(packetBytes)"
vector 106 Scenario.node[6].wlan[0].radio transmissionState:vector ETV
attr interpolationmode sample-hold
attr source transmissionStateChanged
attr title "Radio transmission state, vector"
vector 107 Scenario.node[7].wlan[0].radio radioMode:vector ETV
attr interpolationmode sample-hold
attr source radioModeChanged
attr title "Radio mode, vector"
vector 108 Scenario.node[7].wlan[0].radio radioChannel:vector ETV
attr interpolationmode sample-hold
attr source radioChannelChanged
attr title "Radio channel, vector"
vector 109 Scenario.node[7].wlan[0].radio receptionState:vector ETV
attr interpolationmode sample-hold
attr source receptionStateChanged
attr title "Radio reception state, vector"
vector 110 Scenario.node[7].wlan[0].mac.dcf.channelAccess.contention state:vector ETV
attr interpolationmode none
attr source stateChanged
attr title "contention state, vector"
vector 111 Scenario.node[7].wlan[0].mac.hcf.edca.edcaf[0].contention state:vector ETV
attr interpolationmode none
attr source stateChanged
attr title "contention state, vector"
vector 112 Scenario.node[7].wlan[0].mac.hcf.edca.edcaf[1].contention state:vector ETV
attr interpolationmode none
attr source stateChanged
attr title "contention state, vector"
vector 113 Scenario.node[7].wlan[0].mac.hcf.edca.edcaf[2].contention state:vector ETV
attr interpolationmode none
attr source stateChanged
attr title "contention state, vector"
vector 114 Scenario.node[7].wlan[0].mac.hcf.edca.edcaf[3].contention state:vector ETV
attr interpolationmode none
attr source stateChanged
attr title "contention state, vector"
vector 115 Scenario.node[7].wlan[0].mac rcvdPkFromLL:vector(packetBytes) ETV
attr interpolationmode none
attr source packetReceivedFromLower
attr title "packets received from lower layer, vector(packetBytes)"
vector 116 Scenario.node[7].wlan[0].mac passedUpPk:vector(packetBytes) ETV
attr interpolationmode none
attr source packetSentToUpper
attr title "packets passed to higher layer, vector(packetBytes)"
vector 117 Scenario.node[8].wlan[0].radio radioMode:vector ETV
attr interpolationmode sample-hold
attr source radioModeChanged
attr title "Radio mode, vector"
vector 118 Scenario.node[8].wlan[0].radio radioChannel:vector ETV
attr interpolationmode sample-hold
attr source radioChannelChanged
attr title "Radio channel, vector"
vector 119 Scenario.node[8].wlan[0].radio receptionState:vector ETV
attr interpolationmode sample-hold
attr source receptionStateChanged
attr title "Radio reception state, vector"
vector 120 Scenario.node[8].wlan[0].mac.dcf.channelAccess.contention state:vector ETV
attr interpolationmode none
attr source stateChanged
attr title "contention state, vector"
vector 121 Scenario.node[8].wlan[0].mac.hcf.edca.edcaf[0].contention state:vector ETV
attr interpolationmode none
attr source stateChanged
attr title "contention state, vector"
vector 122 Scenario.node[8].wlan[0].mac.hcf.edca.edcaf[1].contention state:vector ETV
attr interpolationmode none
attr source stateChanged
attr title "contention state, vector"
vector 123 Scenario.node[8].wlan[0].mac.hcf.edca.edcaf[2].contention state:vector ETV
attr interpolationmode none
attr source stateChanged
attr title "contention state, vector"
vector 124 Scenario.node[8].wlan[0].mac.hcf.edca.edcaf[3].contention state:vector ETV
attr interpolationmode none
attr source stateChanged
attr title "contention state, vector"
vector 125 Scenario.node[9].wlan[0].radio radioMode:vector ETV
attr interpolationmode sample-hold
attr source radioModeChanged
attr title "Radio mode, vector"
vector 126 Scenario.node[9].wlan[0].radio radioChannel:vector ETV
attr interpolationmode sample-hold
attr source radioChannelChanged
attr title "Radio channel, vector"
vector 127 Scenario.node[9].wlan[0].radio receptionState:vector ETV
attr interpolationmode sample-hold
attr source receptionStateChanged
attr title "Radio reception state, vector"
vector 128 Scenario.node[9].wlan[0].mac.dcf.channelAccess.contention state:vector ETV
attr interpolationmode none
attr source stateChanged
attr title "contention state, vector"
vector 129 Scenario.node[9].wlan[0].mac.hcf.edca.edcaf[0].contention state:vector ETV
attr interpolationmode none
attr source stateChanged
attr title "contention state, vector"
vector 130 Scenario.node[9].wlan[0].mac.hcf.edca.edcaf[1].contention state:vector ETV
attr interpolationmode none
attr source stateChanged
attr title "contention state, vector"
vector 131 Scenario.node[9].wlan[0].mac.hcf.edca.edcaf[2].contention state:vector ETV
attr interpolationmode none
attr source stateChanged
attr title "contention state, vector"
vector 132 Scenario.node[9].wlan[0].mac.hcf.edca.edcaf[3].contention state:vector ETV
attr interpolationmode none
attr source stateChanged
attr title "contention state, vector"
vector 133 Scenario.node[9].wlan[0].mac rcvdPkFromLL:vector(packetBytes) ETV
attr interpolationmode none
attr source packetReceivedFromLower
attr title "packets received from lower layer, vector(packetBytes)"
vector 134 Scenario.node[8].wlan[0].mac rcvdPkFromLL:vector(packetBytes) ETV
attr interpolationmode none
attr source packetReceivedFromLower
attr title "packets received from lower layer, vector(packetBytes)"
vector 135 Scenario.node[9].wlan[0].mac passedUpPk:vector(packetBytes) ETV
attr interpolationmode none
attr source packetSentToUpper
attr title "packets passed to higher layer, vector(packetBytes)"
vector 136 Scenario.node[8].wlan[0].mac passedUpPk:vector(packetBytes) ETV
attr interpolationmode none
attr source packetSentToUpper
attr title "packets passed to higher layer, vector(packetBytes)"
vector 137 Scenario.node[7].wlan[0].mac rcvdPkFromHL:vector(packetBytes) ETV
attr interpolationmode none
attr source packetReceivedFromUpper
attr title "packets received from higher layer, vector(packetBytes)"
vector 138 Scenario.node[7].wlan[0].mac sentDownPk:vector(packetBytes) ETV
attr interpolationmode none
attr source packetSentToLower
attr title "packets sent to lower layer, vector(packetBytes)"
vector 139 Scenario.node[7].wlan[0].radio transmissionState:vector ETV
attr interpolationmode sample-hold
attr source transmissionStateChanged
attr title "Radio transmission state, vector"
vector 140 Scenario.node[9].wlan[0].mac rcvdPkFromHL:vector(packetBytes) ETV
attr interpolationmode none
attr source packetReceivedFromUpper
attr title "packets received from higher layer, vector(packetBytes)"
vector 141 Scenario.node[9].wlan[0].mac sentDownPk:vector(packetBytes) ETV
attr interpolationmode none
attr source packetSentToLower
attr title "packets sent to lower layer, vector(packetBytes)"
vector 142 Scenario.node[9].wlan[0].radio transmissionState:vector ETV
attr interpolationmode sample-hold
attr source transmissionStateChanged
attr title "Radio transmission state, vector"
vector 143 Scenario.node[8].wlan[0].mac rcvdPkFromHL:vector(packetBytes) ETV
attr interpolationmode none
attr source packetReceivedFromUpper
attr title "packets received from higher layer, vector(packetBytes)"
vector 144 Scenario.node[8].wlan[0].mac sentDownPk:vector(packetBytes) ETV
attr interpolationmode none
attr source packetSentToLower
attr title "packets sent to lower layer, vector(packetBytes)"
vector 145 Scenario.node[8].wlan[0].radio transmissionState:vector ETV
attr interpolationmode sample-hold
attr source transmissionStateChanged
attr title "Radio transmission state, vector"
vector 146 Scenario.node[10].wlan[0].radio radioMode:vector ETV
attr interpolationmode sample-hold
attr source radioModeChanged
attr title "Radio mode, vector"
vector 147 Scenario.node[10].wlan[0].radio radioChannel:vector ETV
attr interpolationmode sample-hold
attr source radioChannelChanged
attr title "Radio channel, vector"
vector 148 Scenario.node[10].wlan[0].radio receptionState:vector ETV
attr interpolationmode sample-hold
attr source receptionStateChanged
attr title "Radio reception state, vector"
vector 149 Scenario.node[10].wlan[0].mac.dcf.channelAccess.contention state:vector ETV
attr interpolationmode none
attr source stateChanged
attr title "contention state, vector"
vector 150 Scenario.node[10].wlan[0].mac.hcf.edca.edcaf[0].contention state:vector ETV
attr interpolationmode none
attr source stateChanged
attr title "contention state, vector"
vector 151 Scenario.node[10].wlan[0].mac.hcf.edca.edcaf[1].contention state:vector ETV
attr interpolationmode none
attr source stateChanged
attr title "contention state, vector"
vector 152 Scenario.node[10].wlan[0].mac.hcf.edca.edcaf[2].contention state:vector ETV
attr interpolationmode none
attr source stateChanged
attr title "contention state, vector"
vector 153 Scenario.node[10].wlan[0].mac.hcf.edca.edcaf[3].contention state:vector ETV
attr interpolationmode none
attr source stateChanged
attr title "contention state, vector"
vector 154 Scenario.node[10].wlan[0].mac rcvdPkFromLL:vector(packetBytes) ETV
attr interpolationmode none
attr source packetReceivedFromLower
attr title "packets received from lower layer, vector(packetBytes)"
vector 155 Scenario.node[10].wlan[0].mac passedUpPk:vector(packetBytes) ETV
attr interpolationmode none
attr source packetSentToUpper
attr title "packets passed to higher layer, vector(packetBytes)"
vector 156 Scenario.node[11].wlan[0].radio radioMode:vector ETV
attr interpolationmode sample-hold
attr source radioModeChanged
attr title "Radio mode, vector"
vector 157 Scenario.node[11].wlan[0].radio radioChannel:vector ETV
attr interpolationmode sample-hold
attr source radioChannelChanged
attr title "Radio channel, vector"
vector 158 Scenario.node[11].wlan[0].radio receptionState:vector ETV
attr interpolationmode sample-hold
attr source receptionStateChanged
attr title "Radio reception state, vector"
vector 159 Scenario.node[11].wlan[0].mac.dcf.channelAccess.contention state:vector ETV
attr interpolationmode none
attr source stateChanged
attr title "contention state, vector"
vector 160 Scenario.node[11].wlan[0].mac.hcf.edca.edcaf[0].contention state:vector ETV
attr interpolationmode none
attr source stateChanged
attr title "contention state, vector"
vector 161 Scenario.node[11].wlan[0].mac.hcf.edca.edcaf[1].contention state:vector ETV
attr interpolationmode none
attr source stateChanged
attr title "contention state, vector"
vector 162 Scenario.node[11].wlan[0].mac.hcf.edca.edcaf[2].contention state:vector ETV
attr interpolationmode none
attr source stateChanged
attr title "contention state, vector"
vector 163 Scenario.node[11].wlan[0].mac.hcf.edca.edcaf[3].contention state:vector ETV
attr interpolationmode none
attr source stateChanged
attr title "contention state, vector"
vector 164 Scenario.node[11].wlan[0].mac rcvdPkFromLL:vector(packetBytes) ETV
attr interpolationmode none
attr source packetReceivedFromLower
attr title "packets received from lower layer, vector(packetBytes)"
vector 165 Scenario.node[11].wlan[0].mac passedUpPk:vector(packetBytes) ETV
attr interpolationmode none
attr source packetSentToUpper
attr title "packets passed to higher layer, vector(packetBytes)"
vector 166 Scenario.node[10].wlan[0].mac rcvdPkFromHL:vector(packetBytes) ETV
attr interpolationmode none
attr source packetReceivedFromUpper
attr title "packets received from higher layer, vector(packetBytes)"
vector 167 Scenario.node[10].wlan[0].mac sentDownPk:vector(packetBytes) ETV
attr interpolationmode none
attr source packetSentToLower
attr title "packets sent to lower layer, vector(packetBytes)"
vector 168 Scenario.node[10].wlan[0].radio transmissionState:vector ETV
attr interpolationmode sample-hold
attr source transmissionStateChanged
attr title "Radio transmission state, vector"
vector 169 Scenario.node[11].wlan[0].mac rcvdPkFromHL:vector(packetBytes) ETV
attr interpolationmode none
attr source packetReceivedFromUpper
attr title "packets received from higher layer, vector(packetBytes)"
vector 170 Scenario.node[11].wlan[0].mac sentDownPk:vector(packetBytes) ETV
attr interpolationmode none
attr source packetSentToLower
attr title "packets sent to lower layer, vector(packetBytes)"
vector 171 Scenario.node[11].wlan[0].radio transmissionState:vector ETV
attr interpolationmode sample-hold
attr source transmissionStateChanged
attr title "Radio transmission state, vector"
0	2	0.1	0
0	2	0.1	2
0	81	2.339988585701	3
0	85	2.340148585701	2
0	165	3.797627004609	3
0	169	3.797739004609	2
0	194	3.797901088995	3
0	200	3.797945088995	2
0	206	3.797997088995	3
0	210	3.799441088995	2
0	249	4	3
0	253	4.001444	2
0	279	4.052781738131	3
0	283	4.052929738131	2
0	298	4.097627004609	3
0	302	4.099071004609	2
0	337	4.100652100639	3
0	343	4.100696100639	2
0	360	4.397627004609	3
0	364	4.399071004609	2
0	399	4.400688113573	3
0	405	4.400732113573	2
0	421	4.5	3
0	425	4.501444	2
0	453	4.697627004609	3
0	457	4.699071004609	2
0	492	4.700706127615	3
0	498	4.700750127615	2
0	521	4.997627004609	3
0	527	4.999071004609	2
0	585	5.000625142849	3
0	595	5.000669142849	2
0	605	5.000793142849	3
0	611	5.002237142849	2
0	657	5.297627004609	3
0	663	5.299071004609	2
0	716	5.300751159133	3
0	726	5.300795159133	2
0	783	5.5	3
0	790	5.501444	2
0	835	5.597627004609	3
0	842	5.599071004609	2
0	904	5.600625176629	3
0	916	5.600669176629	2
0	937	5.784857525164	3
0	944	5.785005525164	2
0	978	5.897627004609	3
0	985	5.899071004609	2
0	1047	5.900670195241	3
0	1059	5.900714195241	2
0	1081	6	3
0	1088	6.001444	2
0	1134	6.197627004609	3
0	1141	6.199071004609	2
0	1203	6.200634214993	3
0	1215	6.200678214993	2
0	1238	6.497627004609	3
0	1245	6.499071004609	2
0	1312	6.500661235899	3
0	1324	6.500705235899	2
0	1336	6.500829235899	3
0	1343	6.502273235899	2
0	1395	6.797627004609	3
0	1402	6.799071004609	2
0	1464	6.800634258037	3
0	1476	6.800678258037	2
0	1496	6.861714566616	3
0	1503	6.861850566616	2
0	1577	7	3
0	1584	7.001444	2
0	1667	7.097627004609	3
0	1674	7.099071004609	2
0	1736	7.100724281433	3
0	1748	7.100768281433	2
0	1811	7.397627004609	3
0	1818	7.399071004609	2
0	1881	7.400760305899	3
0	1893	7.400804305899	2
0	1915	7.5	3
0	1922	7.501444	2
0	1967	7.682510184147	3
0	1974	7.682670184147	2
0	2004	7.697627004609	3
0	2011	7.699071004609	2
0	2073	7.700652330837	3
0	2085	7.700696330837	2
0	2182	7.997627004609	3
0	2189	7.999071004609	2
0	2256	8.000670355661	3
0	2268	8.000714355661	2
0	2280	8.000757355661	3
0	2287	8.002201355661	2
0	2339	8.297627004609	3
0	2346	8.299071004609	2
0	2408	8.300652380519	3
0	2420	8.300696380519	2
0	2444	8.5	3
0	2451	8.501444	2
0	2496	8.597627004609	3
0	2503	8.599071004609	2
0	2565	8.600751405529	3
0	2577	8.600795405529	2
0	2599	8.757399269169	3
0	2606	8.757563269169	2
0	2640	8.897627004609	3
0	2647	8.899071004609	2
0	2709	8.900742430499	3
0	2721	8.900786430499	2
0	2743	9	3
0	2750	9.001444	2
0	2832	9.197627004609	3
0	2839	9.199071004609	2
0	2901	9.200760455557	3
0	2913	9.200804455557	2
0	3045	9.497627004609	3
0	3052	9.499071004609	2
0	3119	9.500688480499	3
0	3131	9.500732480499	2
0	3143	9.500784480499	3
0	3150	9.502228480499	2
0	3205	9.797627004609	3
0	3213	9.799071004609	2
0	3284	9.800643505491	3
0	3298	9.800687505491	2
0	3326	10	3
0	3335	10.001444	2
0	3392	10.097627004609	3
0	3401	10.099071004609	2
0	3481	10.100724534505	3
0	3497	10.100768534505	2
0	3526	10.397627004609	3
0	3535	10.399071004609	2
0	3615	10.400634558719	3
0	3631	10.400678558719	2
0	3707	10.5	3
0	3716	10.501444	2
0	3774	10.680020019783	3
0	3783	10.680184019783	2
0	3875	10.697627004609	3
0	3884	10.699071004609	2
0	3964	10.700679570773	3
0	3980	10.700723570773	2
0	4059	10.997627004609	3
0	4068	10.999071004609	2
0	4153	11.000625574289	3
0	4169	11.000669574289	2
0	4185	11.000703574289	3
0	4194	11.002147574289	2
0	4307	11.297627004609	3
0	4316	11.299071004609	2
0	4396	11.300751575167	3
0	4412	11.300795575167	2
0	4443	11.5	3
0	4452	11.501444	2
0	4511	11.597627004609	3
0	4520	11.599071004609	2
0	4601	11.600652577381	3
0	4617	11.600696577381	2
0	4689	11.668685351173	3
0	4698	11.668877351173	2
0	4746	11.897627004609	3
0	4755	11.899071004609	2
0	4836	11.900697580919	3
0	4852	11.900741580919	2
0	4929	12	3
0	4938	12.001444	2
0	5098	12.197627004609	3
0	5107	12.199071004609	2
0	5187	12.200751585719	3
0	5203	12.200795585719	2
0	5228	12.256648255272	3
0	5237	12.256844255272	2
0	5330	12.497627004609	3
0	5339	12.499071004609	2
0	5424	12.500670591811	3
0	5440	12.500714591811	2
0	5456	12.500775591811	3
0	5465	12.502219591811	2
0	5628	12.797627004609	3
0	5637	12.799071004609	2
0	5717	12.800670599145	3
0	5733	12.800714599145	2
0	5764	13	3
0	5773	13.001444	2
0	5835	13.097627004609	3
0	5844	13.099071004609	2
0	5924	13.100697607721	3
0	5940	13.100741607721	2
0	5971	13.397627004609	3
0	5980	13.399071004609	2
0	6060	13.400643617399	3
0	6076	13.400687617399	2
0	6151	13.5	3
0	6160	13.501444	2
0	6273	13.697627004609	3
0	6283	13.699071004609	2
0	6372	13.700760628201	3
0	6390	13.700804628201	2
0	6421	13.793217871011	3
0	6431	13.793393871011	2
0	6534	13.997627004609	3
0	6544	13.999071004609	2
0	6638	14.000652640053	3
0	6656	14.000696640053	2
0	6674	14.000865640053	3
0	6684	14.002309640053	2
0	6865	14.297627004609	3
0	6875	14.299071004609	2
0	6964	14.300742652847	3
0	6982	14.300786652847	2
0	7018	14.5	3
0	7030	14.501444	2
0	7105	14.597627004609	3
0	7117	14.599071004609	2
0	7224	14.600697666599	3
0	7246	14.600741666599	2
0	7352	14.897627004609	3
0	7364	14.899071004609	2
0	7471	14.900679681229	3
0	7493	14.900723681229	2
0	7526	15	3
0	7538	15.001444	2
0	7618	15.197627004609	3
0	7630	15.199071004609	2
0	7737	15.200697696627	3
0	7759	15.200741696627	2
0	7944	15.497627004609	3
0	7956	15.499071004609	2
0	8068	15.500670712895	3
0	8090	15.500714712895	2
0	8112	15.500775712895	3
0	8124	15.502219712895	2
0	8275	15.797627004609	3
0	8287	15.799071004609	2
0	8394	15.800751729831	3
0	8416	15.800795729831	2
0	8585	15.873809030069	3
0	8597	15.873985030069	2
0	8656	16	3
0	8668	16.001444	2
0	8812	16.097627004609	3
0	8825	16.099071004609	2
0	8932	16.100634747355	3
0	8954	16.100678747355	2
0	9057	16.397627004609	3
0	9069	16.399071004609	2
0	9176	16.400724765599	3
0	9198	16.400768765599	2
0	9373	16.5	3
0	9385	16.501444	2
0	9661	16.571079902956	3
0	9673	16.571271902956	2
0	9744	16.697627004609	3
0	9756	16.699071004609	2
0	9863	16.700742784409	3
0	9885	16.700786784409	2
0	9926	16.997627004609	3
0	9938	16.999071004609	2
0	10050	17.000670803641	3
0	10072	17.000714803641	2
0	10094	17.000856803641	3
0	10106	17.002300803641	2
0	10389	17.297627004609	3
0	10401	17.299071004609	2
0	10508	17.300724823563	3
0	10530	17.300768823563	2
0	10564	17.387113668279	3
0	10576	17.387325668279	2
0	10699	17.5	3
0	10711	17.501444	2
0	10855	17.597627004609	3
0	10867	17.599071004609	2
0	10974	17.600625842547	3
0	10996	17.600669842547	2
0	11161	17.897627004609	3
0	11173	17.899071004609	2
0	11280	17.900724849021	3
0	11302	17.900768849021	2
0	11407	18	3
0	11419	18.001444	2
0	11508	18.197627004609	3
0	11520	18.199071004609	2
0	11627	18.200697840623	3
0	11649	18.200741840623	2
0	11910	18.497627004609	3
0	11923	18.499071004609	2
0	12044	18.500724825939	3
0	12068	18.500768825939	2
0	12092	18.500901825939	3
0	12105	18.502345825939	2
0	12280	18.797627004609	3
0	12293	18.799071004609	2
0	12409	18.800688811147	3
0	12432	18.800732811147	2
0	12469	19	3
0	12482	19.001444	2
0	12637	19.097627004609	3
0	12650	19.099071004609	2
0	12766	19.100733797287	3
0	12789	19.100777797287	2
0	12823	19.227609079702	3
0	12836	19.227801079702	2
0	13046	19.397627004609	3
0	13059	19.399071004609	2
0	13175	19.400643784309	3
0	13198	19.400687784309	2
0	13312	19.5	3
0	13325	19.501444	2
0	13414	19.697627004609	3
0	13427	19.699071004609	2
0	13543	19.700697772329	3
0	13566	19.700741772329	2
0	13850	19.997627004609	3
0	13864	19.999071004609	2
0	13994	20.000724761411	3
0	14019	20.000768761411	2
0	14046	20.000865761411	3
0	14060	20.002309761411	2
0	14244	20.297627004609	3
0	14258	20.299071004609	2
0	14384	20.300634751559	3
0	14409	20.300678751559	2
0	14606	20.5	3
0	14620	20.501444	2
0	14867	20.597627004609	3
0	14881	20.599071004609	2
0	15006	20.600643742843	3
0	15031	20.600687742843	2
0	15159	20.842748108925	3
0	15173	20.842964108925	2
0	15239	20.897627004609	3
0	15253	20.899071004609	2
0	15378	20.900733735285	3
0	15403	20.900777735285	2
0	15440	21	3
0	15454	21.001444	2
0	15709	21.197627004609	3
0	15723	21.199071004609	2
0	15848	21.200679728905	3
0	15873	21.200723728905	2
0	16404	21.497627004609	3
0	16418	21.499071004609	2
0	16548	21.500706723765	3
0	16572	21.500750723765	2
0	16600	21.500793723765	3
0	16614	21.502237723765	2
0	16954	21.797627004609	3
0	16969	21.799071004609	2
0	17094	21.800679719875	3
0	17118	21.800723719875	2
0	17345	22	3
0	17359	22.001444	2
0	17613	22.097627004609	3
0	17627	22.099071004609	2
0	17752	22.100715717261	3
0	17776	22.100759717261	2
0	17984	22.397627004609	3
0	17998	22.399071004609	2
0	18123	22.400760715941	3
0	18147	22.400804715941	2
0	18264	22.5	3
0	18278	22.501444	2
0	18460	22.545627206702	3
0	18474	22.545827206702	2
0	18782	22.697627004609	3
0	18796	22.699071004609	2
0	18921	22.700643715919	3
0	18945	22.700687715919	2
0	19068	22.997627004609	3
0	19082	22.999071004609	2
0	19212	23.000661717187	3
0	19236	23.000705717187	2
0	19264	23.000748717187	3
0	19278	23.002192717187	2
0	19461	23.297627004609	3
0	19475	23.299071004609	2
0	19600	23.300679719745	3
0	19625	23.300723719745	2
0	19829	23.5	3
0	19843	23.501444	2
0	19939	23.597627004609	3
0	19953	23.599071004609	2
0	20078	23.600661723593	3
0	20103	23.600705723593	2
1	2	0.1	0
2	2	0.1	1
2	81	2.339988585701	0
2	85	2.340148585701	1
2	144	3.524085976924	3
2	147	3.524253976924	1
2	165	3.797627004609	0
2	169	3.797739004609	1
2	183	3.797773088995	3
2	186	3.797885088995	1
2	194	3.797901088995	0
2	200	3.797945088995	1
2	206	3.797997088995	0
2	210	3.799441088995	1
2	225	3.799457173381	3
2	230	3.799501173381	1
2	249	4	0
2	253	4.001444	1
2	263	4.00146009603	3
2	268	4.00150409603	1
2	279	4.052781738131	0
2	283	4.052929738131	1
2	298	4.097627004609	0
2	302	4.099071004609	1
2	314	4.099087100639	3
2	319	4.099131100639	1
2	326	4.099192100639	3
2	330	4.100636100639	1
2	337	4.100652100639	0
2	343	4.100696100639	1
2	360	4.397627004609	0
2	364	4.399071004609	1
2	376	4.399087113573	3
2	381	4.399131113573	1
2	388	4.399228113573	3
2	392	4.400672113573	1
2	399	4.400688113573	0
2	405	4.400732113573	1
2	421	4.5	0
2	425	4.501444	1
2	435	4.501460118196	3
2	440	4.501504118196	1
2	453	4.697627004609	0
2	457	4.699071004609	1
2	469	4.699087127615	3
2	474	4.699131127615	1
2	481	4.699246127615	3
2	485	4.700690127615	1
2	492	4.700706127615	0
2	498	4.700750127615	1
2	521	4.997627004609	0
2	527	4.999071004609	1
2	545	4.999087142849	3
2	556	4.999131142849	1
2	565	4.999165142849	3
2	578	5.000609142849	1
2	585	5.000625142849	0
2	595	5.000669142849	1
2	605	5.000793142849	0
2	611	5.002237142849	1
2	627	5.002253286359	3
2	638	5.002297286359	1
2	657	5.297627004609	0
2	663	5.299071004609	1
2	681	5.299087159133	3
2	692	5.299131159133	1
2	701	5.299291159133	3
2	709	5.300735159133	1
2	716	5.300751159133	0
2	726	5.300795159133	1
2	748	5.397221851118	3
2	761	5.397369851118	1
2	783	5.5	0
2	790	5.501444	1
2	809	5.50146017202	3
2	823	5.50150417202	1
2	835	5.597627004609	0
2	842	5.599071004609	1
2	863	5.599087176629	3
2	877	5.599131176629	1
2	887	5.599165176629	3
2	897	5.600609176629	1
2	904	5.600625176629	0
2	916	5.600669176629	1
2	937	5.784857525164	0
2	944	5.785005525164	1
2	978	5.897627004609	0
2	985	5.899071004609	1
2	1006	5.899087195241	3
2	1020	5.899131195241	1
2	1030	5.899210195241	3
2	1040	5.900654195241	1
2	1047	5.900670195241	0
2	1059	5.900714195241	1
2	1081	6	0
2	1088	6.001444	1
2	1107	6.001460203678	3
2	1121	6.001504203678	1
2	1134	6.197627004609	0
2	1141	6.199071004609	1
2	1162	6.199087214993	3
2	1176	6.199131214993	1
2	1186	6.199174214993	3
2	1196	6.200618214993	1
2	1203	6.200634214993	0
2	1215	6.200678214993	1
2	1238	6.497627004609	0
2	1245	6.499071004609	1
2	1266	6.499087235899	3
2	1280	6.499131235899	1
2	1290	6.499201235899	3
2	1305	6.500645235899	1
2	1312	6.500661235899	0
2	1324	6.500705235899	1
2	1336	6.500829235899	0
2	1343	6.502273235899	1
2	1362	6.502289474437	3
2	1376	6.502333474437	1
2	1395	6.797627004609	0
2	1402	6.799071004609	1
2	1423	6.799087258037	3
2	1437	6.799131258037	1
2	1447	6.799174258037	3
2	1457	6.800618258037	1
2	1464	6.800634258037	0
2	1476	6.800678258037	1
2	1496	6.861714566616	0
2	1503	6.861850566616	1
2	1539	6.949640244306	3
2	1549	6.949816244306	1
2	1577	7	0
2	1584	7.001444	1
2	1603	7.001460276824	3
2	1617	7.001504276824	1
2	1633	7.079076236414	3
2	1651	7.079252236414	1
2	1667	7.097627004609	0
2	1674	7.099071004609	1
2	1695	7.099087281433	3
2	1709	7.099131281433	1
2	1719	7.099264281433	3
2	1729	7.100708281433	1
2	1736	7.100724281433	0
2	1748	7.100768281433	1
2	1777	7.25700606893	3
2	1795	7.25715806893	1
2	1811	7.397627004609	0
2	1818	7.399071004609	1
2	1839	7.399087305899	3
2	1853	7.399131305899	1
2	1863	7.399300305899	3
2	1874	7.400744305899	1
2	1881	7.400760305899	0
2	1893	7.400804305899	1
2	1915	7.5	0
2	1922	7.501444	1
2	1941	7.501460317926	3
2	1955	7.501504317926	1
2	1967	7.682510184147	0
2	1974	7.682670184147	1
2	2004	7.697627004609	0
2	2011	7.699071004609	1
2	2032	7.699087330837	3
2	2046	7.699131330837	1
2	2056	7.699192330837	3
2	2066	7.700636330837	1
2	2073	7.700652330837	0
2	2085	7.700696330837	1
2	2110	7.717529606663	3
2	2128	7.717713606663	1
2	2149	7.800907387473	3
2	2167	7.801043387473	1
2	2182	7.997627004609	0
2	2189	7.999071004609	1
2	2210	7.999087355661	3
2	2224	7.999131355661	1
2	2234	7.999210355661	3
2	2249	8.000654355661	1
2	2256	8.000670355661	0
2	2268	8.000714355661	1
2	2280	8.000757355661	0
2	2287	8.002201355661	1
2	2306	8.002217714987	3
2	2320	8.002261714987	1
2	2339	8.297627004609	0
2	2346	8.299071004609	1
2	2367	8.299087380519	3
2	2381	8.299131380519	1
2	2391	8.299192380519	3
2	2401	8.300636380519	1
2	2408	8.300652380519	0
2	2420	8.300696380519	1
2	2444	8.5	0
2	2451	8.501444	1
2	2470	8.50146040092	3
2	2484	8.50150440092	1
2	2496	8.597627004609	0
2	2503	8.599071004609	1
2	2524	8.599087405529	3
2	2538	8.599131405529	1
2	2548	8.599291405529	3
2	2558	8.600735405529	1
2	2565	8.600751405529	0
2	2577	8.600795405529	1
2	2599	8.757399269169	0
2	2606	8.757563269169	1
2	2640	8.897627004609	0
2	2647	8.899071004609	1
2	2668	8.899087430499	3
2	2682	8.899131430499	1
2	2692	8.899282430499	3
2	2702	8.900726430499	1
2	2709	8.900742430499	0
2	2721	8.900786430499	1
2	2743	9	0
2	2750	9.001444	1
2	2769	9.001460442588	3
2	2783	9.001504442588	1
2	2800	9.10806524337	3
2	2818	9.10822924337	1
2	2832	9.197627004609	0
2	2839	9.199071004609	1
2	2860	9.199087455557	3
2	2874	9.199131455557	1
2	2884	9.199300455557	3
2	2894	9.200744455557	1
2	2901	9.200760455557	0
2	2913	9.200804455557	1
2	2939	9.300517953811	3
2	2957	9.300693953811	1
2	2971	9.308984069316	3
2	2977	9.309160069316	1
2	3013	9.460748932835	3
2	3031	9.460912932835	1
2	3045	9.497627004609	0
2	3052	9.499071004609	1
2	3073	9.499087480499	3
2	3087	9.499131480499	1
2	3097	9.499228480499	3
2	3112	9.500672480499	1
2	3119	9.500688480499	0
2	3131	9.500732480499	1
2	3143	9.500784480499	0
2	3150	9.502228480499	1
2	3169	9.502244964735	3
2	3183	9.502288964735	1
2	3205	9.797627004609	0
2	3213	9.799071004609	1
2	3237	9.799087505491	3
2	3254	9.799131505491	1
2	3265	9.799183505491	3
2	3277	9.800627505491	1
2	3284	9.800643505491	0
2	3298	9.800687505491	1
2	3326	10	0
2	3335	10.001444	1
2	3360	10.001460529896	3
2	3380	10.001504529896	1
2	3392	10.097627004609	0
2	3401	10.099071004609	1
2	3428	10.099087534505	3
2	3448	10.099131534505	1
2	3460	10.099264534505	3
2	3474	10.100708534505	1
2	3481	10.100724534505	0
2	3497	10.100768534505	1
2	3526	10.397627004609	0
2	3535	10.399071004609	1
2	3562	10.399087558719	3
2	3582	10.399131558719	1
2	3594	10.399174558719	3
2	3608	10.400618558719	1
2	3615	10.400634558719	0
2	3631	10.400678558719	1
2	3662	10.434726833964	3
2	3690	10.434890833964	1
2	3707	10.5	0
2	3716	10.501444	1
2	3741	10.501460563598	3
2	3761	10.501504563598	1
2	3774	10.680020019783	0
2	3783	10.680184019783	1
2	3825	10.682531988599	3
2	3833	10.682695988599	1
2	3875	10.697627004609	0
2	3884	10.699071004609	1
2	3911	10.699087570773	3
2	3931	10.699131570773	1
2	3943	10.699219570773	3
2	3957	10.700663570773	1
2	3964	10.700679570773	0
2	3980	10.700723570773	1
2	4014	10.882470763704	3
2	4042	10.882634763704	1
2	4059	10.997627004609	0
2	4068	10.999071004609	1
2	4095	10.999087574289	3
2	4115	10.999131574289	1
2	4127	10.999165574289	3
2	4146	11.000609574289	1
2	4153	11.000625574289	0
2	4169	11.000669574289	1
2	4185	11.000703574289	0
2	4194	11.002147574289	1
2	4219	11.002164144093	3
2	4239	11.002208144093	1
2	4262	11.163257277679	3
2	4290	11.163421277679	1
2	4307	11.297627004609	0
2	4316	11.299071004609	1
2	4343	11.299087575167	3
2	4363	11.299131575167	1
2	4375	11.299291575167	3
2	4389	11.300735575167	1
2	4396	11.300751575167	0
2	4412	11.300795575167	1
2	4443	11.5	0
2	4452	11.501444	1
2	4477	11.501460572772	3
2	4497	11.501504572772	1
2	4511	11.597627004609	0
2	4520	11.599071004609	1
2	4547	11.599087577381	3
2	4567	11.599131577381	1
2	4579	11.599192577381	3
2	4594	11.600636577381	1
2	4601	11.600652577381	0
2	4617	11.600696577381	1
2	4643	11.646650935222	3
2	4651	11.646786935222	1
2	4689	11.668685351173	0
2	4698	11.668877351173	1
2	4746	11.897627004609	0
2	4755	11.899071004609	1
2	4782	11.899087580919	3
2	4802	11.899131580919	1
2	4814	11.899237580919	3
2	4829	11.900681580919	1
2	4836	11.900697580919	0
2	4852	11.900741580919	1
2	4884	11.951868962577	3
2	4912	11.952060962577	1
2	4929	12	0
2	4938	12.001444	1
2	4963	12.00146057937	3
2	4983	12.00150457937	1
2	5001	12.011541145881	3
2	5029	12.011733145881	1
2	5055	12.131558117747	3
2	5083	12.131750117747	1
2	5098	12.197627004609	0
2	5107	12.199071004609	1
2	5134	12.199087585719	3
2	5154	12.199131585719	1
2	5166	12.199291585719	3
2	5180	12.200735585719	1
2	5187	12.200751585719	0
2	5203	12.200795585719	1
2	5228	12.256648255272	0
2	5237	12.256844255272	1
2	5282	12.465619367776	3
2	5290	12.465795367776	1
2	5330	12.497627004609	0
2	5339	12.499071004609	1
2	5366	12.499087591811	3
2	5386	12.499131591811	1
2	5398	12.499210591811	3
2	5417	12.500654591811	1
2	5424	12.500670591811	0
2	5440	12.500714591811	1
2	5456	12.500775591811	0
2	5465	12.502219591811	1
2	5490	12.502236181305	3
2	5510	12.502280181305	1
2	5532	12.515973927266	3
2	5560	12.516169927266	1
2	5586	12.749853557431	3
2	5614	12.750049557431	1
2	5628	12.797627004609	0
2	5637	12.799071004609	1
2	5664	12.799087599145	3
2	5684	12.799131599145	1
2	5696	12.799210599145	3
2	5710	12.800654599145	1
2	5717	12.800670599145	0
2	5733	12.800714599145	1
2	5764	13	0
2	5773	13.001444	1
2	5798	13.001460603112	3
2	5818	13.001504603112	1
2	5835	13.097627004609	0
2	5844	13.099071004609	1
2	5871	13.099087607721	3
2	5891	13.099131607721	1
2	5903	13.099237607721	3
2	5917	13.100681607721	1
2	5924	13.100697607721	0
2	5940	13.100741607721	1
2	5971	13.397627004609	0
2	5980	13.399071004609	1
2	6007	13.399087617399	3
2	6027	13.399131617399	1
2	6039	13.399183617399	3
2	6053	13.400627617399	1
2	6060	13.400643617399	0
2	6076	13.400687617399	1
2	6107	13.424134442142	3
2	6135	13.424318442142	1
2	6151	13.5	0
2	6160	13.501444	1
2	6185	13.50146061987	3
2	6205	13.50150461987	1
2	6223	13.521960168751	3
2	6251	13.522144168751	1
2	6273	13.697627004609	0
2	6283	13.699071004609	1
2	6313	13.699087628201	3
2	6336	13.699131628201	1
2	6349	13.699300628201	3
2	6365	13.700744628201	1
2	6372	13.700760628201	0
2	6390	13.700804628201	1
2	6421	13.793217871011	0
2	6431	13.793393871011	1
2	6485	13.807363435647	3
2	6518	13.807539435647	1
2	6534	13.997627004609	0
2	6544	13.999071004609	1
2	6574	13.999087640053	3
2	6597	13.999131640053	1
2	6610	13.999192640053	3
2	6631	14.000636640053	1
2	6638	14.000652640053	0
2	6656	14.000696640053	1
2	6674	14.000865640053	0
2	6684	14.002309640053	1
2	6712	14.002326279633	3
2	6735	14.002370279633	1
2	6754	14.089005715183	3
2	6763	14.089181715183	1
2	6810	14.094383860204	3
2	6827	14.094559860204	1
2	6865	14.297627004609	0
2	6875	14.299071004609	1
2	6905	14.299087652847	3
2	6928	14.299131652847	1
2	6941	14.299282652847	3
2	6957	14.300726652847	1
2	6964	14.300742652847	0
2	6982	14.300786652847	1
2	7018	14.5	0
2	7030	14.501444	1
2	7064	14.50146066199	3
2	7093	14.50150466199	1
2	7105	14.597627004609	0
2	7117	14.599071004609	1
2	7153	14.599087666599	3
2	7182	14.599131666599	1
2	7197	14.599237666599	3
2	7217	14.600681666599	1
2	7224	14.600697666599	0
2	7246	14.600741666599	1
2	7287	14.749585484647	3
2	7330	14.749761484647	1
2	7352	14.897627004609	0
2	7364	14.899071004609	1
2	7400	14.899087681229	3
2	7429	14.899131681229	1
2	7444	14.899219681229	3
2	7464	14.900663681229	1
2	7471	14.900679681229	0
2	7493	14.900723681229	1
2	7526	15	0
2	7538	15.001444	1
2	7572	15.001460686794	3
2	7601	15.001504686794	1
2	7618	15.197627004609	0
2	7630	15.199071004609	1
2	7666	15.199087696627	3
2	7695	15.199131696627	1
2	7710	15.199237696627	3
2	7730	15.200681696627	1
2	7737	15.200697696627	0
2	7759	15.200741696627	1
2	7811	15.416150231696	3
2	7854	15.416326231696	1
2	7878	15.422819158471	3
2	7921	15.422995158471	1
2	7944	15.497627004609	0
2	7956	15.499071004609	1
2	7992	15.499087712895	3
2	8021	15.499131712895	1
2	8036	15.499210712895	3
2	8061	15.500654712895	1
2	8068	15.500670712895	0
2	8090	15.500714712895	1
2	8112	15.500775712895	0
2	8124	15.502219712895	1
2	8158	15.502236426749	3
2	8187	15.502280426749	1
2	8215	15.710571287477	3
2	8258	15.710747287477	1
2	8275	15.797627004609	0
2	8287	15.799071004609	1
2	8323	15.799087729831	3
2	8352	15.799131729831	1
2	8367	15.799291729831	3
2	8387	15.800735729831	1
2	8394	15.800751729831	0
2	8416	15.800795729831	1
2	8452	15.803592060472	3
2	8495	15.803788060472	1
2	8520	15.85311553082	3
2	8535	15.85329553082	1
2	8585	15.873809030069	0
2	8597	15.873985030069	1
2	8656	16	0
2	8668	16.001444	1
2	8702	16.001460742746	3
2	8731	16.001504742746	1
2	8744	16.017340877947	3
2	8755	16.017520877947	1
2	8812	16.097627004609	0
2	8825	16.099071004609	1
2	8861	16.099087747355	3
2	8890	16.099131747355	1
2	8905	16.099174747355	3
2	8925	16.100618747355	1
2	8932	16.100634747355	0
2	8954	16.100678747355	1
2	8996	16.214944813559	3
2	9039	16.215124813559	1
2	9057	16.397627004609	0
2	9069	16.399071004609	1
2	9105	16.399087765599	3
2	9134	16.399131765599	1
2	9149	16.399264765599	3
2	9169	16.400708765599	1
2	9176	16.400724765599	0
2	9198	16.400768765599	1
2	9247	16.477263187665	3
2	9290	16.477399187665	1
2	9304	16.479296253722	3
2	9315	16.479432253722	1
2	9373	16.5	0
2	9385	16.501444	1
2	9419	16.501460773468	3
2	9448	16.501504773468	1
2	9470	16.515919891199	3
2	9513	16.516127891199	1
2	9536	16.525185469839	3
2	9579	16.525393469839	1
2	9605	16.552848932656	3
2	9648	16.553048932656	1
2	9661	16.571079902956	0
2	9673	16.571271902956	1
2	9744	16.697627004609	0
2	9756	16.699071004609	1
2	9792	16.699087784409	3
2	9821	16.699131784409	1
2	9836	16.699282784409	3
2	9856	16.700726784409	1
2	9863	16.700742784409	0
2	9885	16.700786784409	1
2	9926	16.997627004609	0
2	9938	16.999071004609	1
2	9974	16.999087803641	3
2	10003	16.999131803641	1
2	10018	16.999210803641	3
2	10043	17.000654803641	1
2	10050	17.000670803641	0
2	10072	17.000714803641	1
2	10094	17.000856803641	0
2	10106	17.002300803641	1
2	10140	17.002317609221	3
2	10169	17.002361609221	1
2	10183	17.009360248272	3
2	10198	17.009496248272	1
2	10261	17.041498760803	3
2	10304	17.041634760803	1
2	10331	17.194453399167	3
2	10374	17.194645399167	1
2	10389	17.297627004609	0
2	10401	17.299071004609	1
2	10437	17.299087823563	3
2	10466	17.299131823563	1
2	10481	17.299264823563	3
2	10501	17.300708823563	1
2	10508	17.300724823563	0
2	10530	17.300768823563	1
2	10564	17.387113668279	0
2	10576	17.387325668279	1
2	10642	17.496389446941	3
2	10685	17.496525446941	1
2	10699	17.5	0
2	10711	17.501444	1
2	10745	17.501460837938	3
2	10774	17.501504837938	1
2	10797	17.53657611204	3
2	10840	17.53677611204	1
2	10855	17.597627004609	0
2	10867	17.599071004609	1
2	10903	17.599087842547	3
2	10932	17.599131842547	1
2	10947	17.599165842547	3
2	10967	17.600609842547	1
2	10974	17.600625842547	0
2	10996	17.600669842547	1
2	11028	17.695003817579	3
2	11039	17.695195817579	1
2	11095	17.703459272682	3
2	11110	17.703651272682	1
2	11161	17.897627004609	0
2	11173	17.899071004609	1
2	11209	17.899087849021	3
2	11238	17.899131849021	1
2	11253	17.899264849021	3
2	11273	17.900708849021	1
2	11280	17.900724849021	0
2	11302	17.900768849021	1
2	11348	17.95530653967	3
2	11391	17.95549853967	1
2	11407	18	0
2	11419	18.001444	1
2	11453	18.001460840954	3
2	11482	18.001504840954	1
2	11508	18.197627004609	0
2	11520	18.199071004609	1
2	11556	18.199087840623	3
2	11585	18.199131840623	1
2	11600	18.199237840623	3
2	11620	18.200681840623	1
2	11627	18.200697840623	0
2	11649	18.200741840623	1
2	11696	18.279454439264	3
2	11739	18.279654439264	1
2	11767	18.338166538037	3
2	11815	18.338358538037	1
2	11841	18.454597573028	3
2	11889	18.454789573028	1
2	11910	18.497627004609	0
2	11923	18.499071004609	1
2	11962	18.499087825939	3
2	11994	18.499131825939	1
2	12010	18.499264825939	3
2	12037	18.500708825939	1
2	12044	18.500724825939	0
2	12068	18.500768825939	1
2	12092	18.500901825939	0
2	12105	18.502345825939	1
2	12142	18.502362642239	3
2	12174	18.502406642239	1
2	12207	18.629176629875	3
2	12251	18.629376629875	1
2	12280	18.797627004609	0
2	12293	18.799071004609	1
2	12331	18.799087811147	3
2	12362	18.799131811147	1
2	12379	18.799228811147	3
2	12400	18.800672811147	1
2	12409	18.800688811147	0
2	12432	18.800732811147	1
2	12469	19	0
2	12482	19.001444	1
2	12518	19.001460792678	3
2	12549	19.001504792678	1
2	12572	19.054964638396	3
2	12616	19.055156638396	1
2	12637	19.097627004609	0
2	12650	19.099071004609	1
2	12688	19.099087797287	3
2	12719	19.099131797287	1
2	12736	19.099273797287	3
2	12757	19.100717797287	1
2	12766	19.100733797287	0
2	12789	19.100777797287	1
2	12823	19.227609079702	0
2	12836	19.227801079702	1
2	12899	19.257653294994	3
2	12911	19.257845294994	1
2	12981	19.303513796038	3
2	13025	19.303705796038	1
2	13046	19.397627004609	0
2	13059	19.399071004609	1
2	13097	19.399087784309	3
2	13128	19.399131784309	1
2	13145	19.399183784309	3
2	13166	19.400627784309	1
2	13175	19.400643784309	0
2	13198	19.400687784309	1
2	13240	19.43179925083	3
2	13256	19.43199125083	1
2	13312	19.5	0
2	13325	19.501444	1
2	13361	19.5014607716	3
2	13392	19.5015047716	1
2	13414	19.697627004609	0
2	13427	19.699071004609	1
2	13465	19.699087772329	3
2	13496	19.699131772329	1
2	13513	19.699237772329	3
2	13534	19.700681772329	1
2	13543	19.700697772329	0
2	13566	19.700741772329	1
2	13609	19.717378130339	3
2	13653	19.717570130339	1
2	13702	19.90921026373	3
2	13751	19.90940226373	1
2	13780	19.911764463276	3
2	13829	19.911956463276	1
2	13850	19.997627004609	0
2	13864	19.999071004609	1
2	13905	19.999087761411	3
2	13939	19.999131761411	1
2	13957	19.999264761411	3
2	13985	20.000708761411	1
2	13994	20.000724761411	0
2	14019	20.000768761411	1
2	14046	20.000865761411	0
2	14060	20.002309761411	1
2	14099	20.002326514805	3
2	14133	20.002370514805	1
2	14161	20.040982276217	3
2	14210	20.041174276217	1
2	14244	20.297627004609	0
2	14258	20.299071004609	1
2	14299	20.299087751559	3
2	14333	20.299131751559	1
2	14351	20.299174751559	3
2	14375	20.300618751559	1
2	14384	20.300634751559	0
2	14409	20.300678751559	1
2	14455	20.389732890732	3
2	14504	20.389868890732	1
2	14535	20.416606654144	3
2	14584	20.416798654144	1
2	14606	20.5	0
2	14620	20.501444	1
2	14659	20.501460738234	3
2	14693	20.501504738234	1
2	14708	20.518393925562	3
2	14721	20.518585925562	1
2	14797	20.582711048983	3
2	14846	20.582923048983	1
2	14867	20.597627004609	0
2	14881	20.599071004609	1
2	14922	20.599087742843	3
2	14956	20.599131742843	1
2	14974	20.599183742843	3
2	14997	20.600627742843	1
2	15006	20.600643742843	0
2	15031	20.600687742843	1
2	15090	20.778002823939	3
2	15139	20.778198823939	1
2	15159	20.842748108925	0
2	15173	20.842964108925	1
2	15239	20.897627004609	0
2	15253	20.899071004609	1
2	15294	20.899087735285	3
2	15328	20.899131735285	1
2	15346	20.899273735285	3
2	15369	20.900717735285	1
2	15378	20.900733735285	0
2	15403	20.900777735285	1
2	15440	21	0
2	15454	21.001444	1
2	15493	21.001460726282	3
2	15527	21.001504726282	1
2	15556	21.115073224013	3
2	15609	21.115269224013	1
2	15635	21.16049103698	3
2	15680	21.16068703698	1
2	15709	21.197627004609	0
2	15723	21.199071004609	1
2	15764	21.199087728905	3
2	15798	21.199131728905	1
2	15816	21.199219728905	3
2	15839	21.200663728905	1
2	15848	21.200679728905	0
2	15873	21.200723728905	1
2	15922	21.228592641083	3
2	15967	21.228728641083	1
2	15992	21.239330422494	3
2	16005	21.239466422494	1
2	16082	21.392559492349	3
2	16127	21.392695492349	1
2	16171	21.425806854898	3
2	16188	21.426002854898	1
2	16258	21.454199890192	3
2	16303	21.454335890192	1
2	16338	21.494107944476	3
2	16391	21.494323944476	1
2	16404	21.497627004609	0
2	16418	21.499071004609	1
2	16458	21.499087723765	3
2	16491	21.499131723765	1
2	16510	21.499246723765	3
2	16537	21.500690723765	1
2	16548	21.500706723765	0
2	16572	21.500750723765	1
2	16600	21.500793723765	0
2	16614	21.502237723765	1
2	16652	21.502254441481	3
2	16685	21.502298441481	1
2	16718	21.647681356222	3
2	16763	21.647877356222	1
2	16796	21.686357520618	3
2	16841	21.686493520618	1
2	16875	21.69311211742	3
2	16928	21.69324811742	1
2	16954	21.797627004609	0
2	16969	21.799071004609	1
2	17009	21.799087719875	3
2	17042	21.799131719875	1
2	17061	21.799219719875	3
2	17083	21.800663719875	1
2	17094	21.800679719875	0
2	17118	21.800723719875	1
2	17175	21.849284580835	3
2	17220	21.849480580835	1
2	17270	21.875370918896	3
2	17315	21.875566918896	1
2	17345	22	0
2	17359	22.001444	1
2	17397	22.001460712652	3
2	17430	22.001504712652	1
2	17464	22.059678552782	3
2	17509	22.059886552782	1
2	17544	22.084292682503	3
2	17589	22.084516682503	1
2	17613	22.097627004609	0
2	17627	22.099071004609	1
2	17667	22.099087717261	3
2	17700	22.099131717261	1
2	17719	22.099255717261	3
2	17741	22.100699717261	1
2	17752	22.100715717261	0
2	17776	22.100759717261	1
2	17817	22.188456429607	3
2	17834	22.188592429607	1
2	17910	22.219725426846	3
2	17955	22.219861426846	1
2	17984	22.397627004609	0
2	17998	22.399071004609	1
2	18038	22.399087715941	3
2	18071	22.399131715941	1
2	18090	22.399300715941	3
2	18112	22.400744715941	1
2	18123	22.400760715941	0
2	18147	22.400804715941	1
2	18193	22.451647605222	3
2	18238	22.451847605222	1
2	18264	22.5	0
2	18278	22.501444	1
2	18316	22.501460711174	3
2	18349	22.501504711174	1
2	18374	22.504900510844	3
2	18427	22.505100510844	1
2	18460	22.545627206702	0
2	18474	22.545827206702	1
2	18539	22.549223371118	3
2	18552	22.549423371118	1
2	18633	22.592320347562	3
2	18678	22.592532347562	1
2	18713	22.683529785305	3
2	18758	22.683673785305	1
2	18782	22.697627004609	0
2	18796	22.699071004609	1
2	18836	22.699087715919	3
2	18869	22.699131715919	1
2	18888	22.699183715919	3
2	18910	22.700627715919	1
2	18921	22.700643715919	0
2	18945	22.700687715919	1
2	18982	22.709931203986	3
2	18999	22.710131203986	1
2	19068	22.997627004609	0
2	19082	22.999071004609	1
2	19122	22.999087717187	3
2	19155	22.999131717187	1
2	19174	22.999201717187	3
2	19201	23.000645717187	1
2	19212	23.000661717187	0
2	19236	23.000705717187	1
2	19264	23.000748717187	0
2	19278	23.002192717187	1
2	19316	23.002209430477	3
2	19349	23.002253430477	1
2	19380	23.165558572515	3
2	19425	23.165758572515	1
2	19461	23.297627004609	0
2	19475	23.299071004609	1
2	19516	23.299087719745	3
2	19550	23.299131719745	1
2	19568	23.299219719745	3
2	19591	23.300663719745	1
2	19600	23.300679719745	0
2	19625	23.300723719745	1
2	19671	23.316148758142	3
2	19720	23.316348758142	1
2	19759	23.486673283463	3
2	19804	23.486873283463	1
2	19829	23.5	0
2	19843	23.501444	1
2	19882	23.501460718984	3
2	19916	23.501504718984	1
2	19939	23.597627004609	0
2	19953	23.599071004609	1
2	19994	23.599087723593	3
2	20028	23.599131723593	1
2	20046	23.599201723593	3
2	20069	23.600645723593	1
2	20078	23.600661723593	0
2	20103	23.600705723593	1
2	20149	23.611815567381	3
2	20198	23.612015567381	1
2	20246	23.722441454729	3
2	20291	23.722653454729	1
2	20327	23.873984173426	3
3	2	0.1	0
3	2	0.1	0
3	77	2.339988585701	0
3	77	2.339988585701	2
3	78	2.339988585701	2
3	78	2.339988585701	0
3	81	2.339988585701	0
3	81	2.339988585701	0
3	85	2.340148585701	0
3	85	2.340148585701	0
3	144	3.524085976924	0
3	144	3.524085976924	0
3	147	3.524253976924	0
3	147	3.524253976924	0
3	161	3.797627004609	0
3	161	3.797627004609	2
3	162	3.797627004609	2
3	162	3.797627004609	0
3	165	3.797627004609	0
3	165	3.797627004609	0
3	169	3.797739004609	0
3	169	3.797739004609	0
3	183	3.797773088995	0
3	183	3.797773088995	0
3	186	3.797885088995	0
3	186	3.797885088995	0
3	192	3.797885088995	0
3	192	3.797885088995	2
3	194	3.797901088995	2
3	194	3.797901088995	1
3	200	3.797945088995	1
3	200	3.797945088995	2
3	203	3.797997088995	2
3	203	3.797997088995	0
3	206	3.797997088995	0
3	206	3.797997088995	0
3	230	3.799501173381	0
3	230	3.799501173381	0
3	245	4	0
3	245	4	2
3	246	4	2
3	246	4	0
3	249	4	0
3	249	4	0
3	268	4.00150409603	0
3	268	4.00150409603	0
3	275	4.052781738131	0
3	275	4.052781738131	2
3	276	4.052781738131	2
3	276	4.052781738131	0
3	279	4.052781738131	0
3	279	4.052781738131	0
3	283	4.052929738131	0
3	283	4.052929738131	0
3	294	4.097627004609	0
3	294	4.097627004609	2
3	295	4.097627004609	2
3	295	4.097627004609	0
3	298	4.097627004609	0
3	298	4.097627004609	0
3	319	4.099131100639	0
3	319	4.099131100639	0
3	326	4.099192100639	0
3	326	4.099192100639	0
3	330	4.100636100639	0
3	330	4.100636100639	0
3	337	4.100652100639	0
3	337	4.100652100639	0
3	343	4.100696100639	0
3	343	4.100696100639	0
3	356	4.397627004609	0
3	356	4.397627004609	2
3	357	4.397627004609	2
3	357	4.397627004609	0
3	360	4.397627004609	0
3	360	4.397627004609	0
3	381	4.399131113573	0
3	381	4.399131113573	0
3	388	4.399228113573	0
3	388	4.399228113573	0
3	392	4.400672113573	0
3	392	4.400672113573	0
3	399	4.400688113573	0
3	399	4.400688113573	0
3	405	4.400732113573	0
3	405	4.400732113573	0
3	417	4.5	0
3	417	4.5	2
3	418	4.5	2
3	418	4.5	0
3	421	4.5	0
3	421	4.5	0
3	440	4.501504118196	0
3	440	4.501504118196	0
3	449	4.697627004609	0
3	449	4.697627004609	2
3	450	4.697627004609	2
3	450	4.697627004609	0
3	453	4.697627004609	0
3	453	4.697627004609	0
3	474	4.699131127615	0
3	474	4.699131127615	0
3	481	4.699246127615	0
3	481	4.699246127615	0
3	485	4.700690127615	0
3	485	4.700690127615	0
3	492	4.700706127615	0
3	492	4.700706127615	0
3	498	4.700750127615	0
3	498	4.700750127615	0
3	517	4.997627004609	0
3	517	4.997627004609	2
3	518	4.997627004609	2
3	518	4.997627004609	0
3	521	4.997627004609	0
3	521	4.997627004609	0
3	556	4.999131142849	0
3	556	4.999131142849	0
3	565	4.999165142849	0
3	565	4.999165142849	0
3	571	5	0
3	571	5	1
3	578	5.000609142849	1
3	578	5.000609142849	2
3	585	5.000625142849	2
3	585	5.000625142849	1
3	595	5.000669142849	1
3	595	5.000669142849	2
3	602	5.000793142849	2
3	602	5.000793142849	0
3	605	5.000793142849	0
3	605	5.000793142849	0
3	638	5.002297286359	0
3	638	5.002297286359	0
3	653	5.297627004609	0
3	653	5.297627004609	2
3	654	5.297627004609	2
3	654	5.297627004609	0
3	657	5.297627004609	0
3	657	5.297627004609	0
3	692	5.299131159133	0
3	692	5.299131159133	0
3	701	5.299291159133	0
3	701	5.299291159133	0
3	709	5.300735159133	0
3	709	5.300735159133	0
3	716	5.300751159133	0
3	716	5.300751159133	0
3	726	5.300795159133	0
3	726	5.300795159133	0
3	748	5.397221851118	0
3	748	5.397221851118	0
3	761	5.397369851118	0
3	761	5.397369851118	0
3	779	5.5	0
3	779	5.5	2
3	780	5.5	2
3	780	5.5	0
3	783	5.5	0
3	783	5.5	0
3	823	5.50150417202	0
3	823	5.50150417202	0
3	831	5.597627004609	0
3	831	5.597627004609	2
3	832	5.597627004609	2
3	832	5.597627004609	0
3	835	5.597627004609	0
3	835	5.597627004609	0
3	877	5.599131176629	0
3	877	5.599131176629	0
3	887	5.599165176629	0
3	887	5.599165176629	0
3	897	5.600609176629	0
3	897	5.600609176629	0
3	904	5.600625176629	0
3	904	5.600625176629	0
3	916	5.600669176629	0
3	916	5.600669176629	0
3	933	5.784857525164	0
3	933	5.784857525164	2
3	934	5.784857525164	2
3	934	5.784857525164	0
3	937	5.784857525164	0
3	937	5.784857525164	0
3	944	5.785005525164	0
3	944	5.785005525164	0
3	974	5.897627004609	0
3	974	5.897627004609	2
3	975	5.897627004609	2
3	975	5.897627004609	0
3	978	5.897627004609	0
3	978	5.897627004609	0
3	1020	5.899131195241	0
3	1020	5.899131195241	0
3	1030	5.899210195241	0
3	1030	5.899210195241	0
3	1040	5.900654195241	0
3	1040	5.900654195241	0
3	1047	5.900670195241	0
3	1047	5.900670195241	0
3	1059	5.900714195241	0
3	1059	5.900714195241	0
3	1077	6	0
3	1077	6	2
3	1078	6	2
3	1078	6	0
3	1081	6	0
3	1081	6	0
3	1121	6.001504203678	0
3	1121	6.001504203678	0
3	1130	6.197627004609	0
3	1130	6.197627004609	2
3	1131	6.197627004609	2
3	1131	6.197627004609	0
3	1134	6.197627004609	0
3	1134	6.197627004609	0
3	1176	6.199131214993	0
3	1176	6.199131214993	0
3	1186	6.199174214993	0
3	1186	6.199174214993	0
3	1196	6.200618214993	0
3	1196	6.200618214993	0
3	1203	6.200634214993	0
3	1203	6.200634214993	0
3	1215	6.200678214993	0
3	1215	6.200678214993	0
3	1234	6.497627004609	0
3	1234	6.497627004609	2
3	1235	6.497627004609	2
3	1235	6.497627004609	0
3	1238	6.497627004609	0
3	1238	6.497627004609	0
3	1280	6.499131235899	0
3	1280	6.499131235899	0
3	1290	6.499201235899	0
3	1290	6.499201235899	0
3	1296	6.5	0
3	1296	6.5	1
3	1305	6.500645235899	1
3	1305	6.500645235899	2
3	1312	6.500661235899	2
3	1312	6.500661235899	1
3	1324	6.500705235899	1
3	1324	6.500705235899	2
3	1333	6.500829235899	2
3	1333	6.500829235899	0
3	1336	6.500829235899	0
3	1336	6.500829235899	0
3	1376	6.502333474437	0
3	1376	6.502333474437	0
3	1391	6.797627004609	0
3	1391	6.797627004609	2
3	1392	6.797627004609	2
3	1392	6.797627004609	0
3	1395	6.797627004609	0
3	1395	6.797627004609	0
3	1437	6.799131258037	0
3	1437	6.799131258037	0
3	1447	6.799174258037	0
3	1447	6.799174258037	0
3	1457	6.800618258037	0
3	1457	6.800618258037	0
3	1464	6.800634258037	0
3	1464	6.800634258037	0
3	1476	6.800678258037	0
3	1476	6.800678258037	0
3	1492	6.861714566616	0
3	1492	6.861714566616	2
3	1493	6.861714566616	2
3	1493	6.861714566616	0
3	1496	6.861714566616	0
3	1496	6.861714566616	0
3	1503	6.861850566616	0
3	1503	6.861850566616	0
3	1539	6.949640244306	0
3	1539	6.949640244306	0
3	1549	6.949816244306	0
3	1549	6.949816244306	0
3	1573	7	0
3	1573	7	2
3	1574	7	2
3	1574	7	0
3	1577	7	0
3	1577	7	0
3	1617	7.001504276824	0
3	1617	7.001504276824	0
3	1633	7.079076236414	0
3	1633	7.079076236414	0
3	1651	7.079252236414	0
3	1651	7.079252236414	0
3	1663	7.097627004609	0
3	1663	7.097627004609	2
3	1664	7.097627004609	2
3	1664	7.097627004609	0
3	1667	7.097627004609	0
3	1667	7.097627004609	0
3	1709	7.099131281433	0
3	1709	7.099131281433	0
3	1719	7.099264281433	0
3	1719	7.099264281433	0
3	1729	7.100708281433	0
3	1729	7.100708281433	0
3	1736	7.100724281433	0
3	1736	7.100724281433	0
3	1748	7.100768281433	0
3	1748	7.100768281433	0
3	1777	7.25700606893	0
3	1777	7.25700606893	0
3	1795	7.25715806893	0
3	1795	7.25715806893	0
3	1807	7.397627004609	0
3	1807	7.397627004609	2
3	1808	7.397627004609	2
3	1808	7.397627004609	0
3	1811	7.397627004609	0
3	1811	7.397627004609	0
3	1853	7.399131305899	0
3	1853	7.399131305899	0
3	1863	7.399300305899	0
3	1863	7.399300305899	0
3	1874	7.400744305899	0
3	1874	7.400744305899	0
3	1881	7.400760305899	0
3	1881	7.400760305899	0
3	1893	7.400804305899	0
3	1893	7.400804305899	0
3	1911	7.5	0
3	1911	7.5	2
3	1912	7.5	2
3	1912	7.5	0
3	1915	7.5	0
3	1915	7.5	0
3	1955	7.501504317926	0
3	1955	7.501504317926	0
3	1963	7.682510184147	0
3	1963	7.682510184147	2
3	1964	7.682510184147	2
3	1964	7.682510184147	0
3	1967	7.682510184147	0
3	1967	7.682510184147	0
3	1974	7.682670184147	0
3	1974	7.682670184147	0
3	2000	7.697627004609	0
3	2000	7.697627004609	2
3	2001	7.697627004609	2
3	2001	7.697627004609	0
3	2004	7.697627004609	0
3	2004	7.697627004609	0
3	2046	7.699131330837	0
3	2046	7.699131330837	0
3	2056	7.699192330837	0
3	2056	7.699192330837	0
3	2066	7.700636330837	0
3	2066	7.700636330837	0
3	2073	7.700652330837	0
3	2073	7.700652330837	0
3	2085	7.700696330837	0
3	2085	7.700696330837	0
3	2110	7.717529606663	0
3	2110	7.717529606663	0
3	2128	7.717713606663	0
3	2128	7.717713606663	0
3	2149	7.800907387473	0
3	2149	7.800907387473	0
3	2167	7.801043387473	0
3	2167	7.801043387473	0
3	2178	7.997627004609	0
3	2178	7.997627004609	2
3	2179	7.997627004609	2
3	2179	7.997627004609	0
3	2182	7.997627004609	0
3	2182	7.997627004609	0
3	2224	7.999131355661	0
3	2224	7.999131355661	0
3	2234	7.999210355661	0
3	2234	7.999210355661	0
3	2240	8	0
3	2240	8	1
3	2249	8.000654355661	1
3	2249	8.000654355661	2
3	2256	8.000670355661	2
3	2256	8.000670355661	1
3	2268	8.000714355661	1
3	2268	8.000714355661	2
3	2277	8.000757355661	2
3	2277	8.000757355661	0
3	2280	8.000757355661	0
3	2280	8.000757355661	0
3	2320	8.002261714987	0
3	2320	8.002261714987	0
3	2335	8.297627004609	0
3	2335	8.297627004609	2
3	2336	8.297627004609	2
3	2336	8.297627004609	0
3	2339	8.297627004609	0
3	2339	8.297627004609	0
3	2381	8.299131380519	0
3	2381	8.299131380519	0
3	2391	8.299192380519	0
3	2391	8.299192380519	0
3	2401	8.300636380519	0
3	2401	8.300636380519	0
3	2408	8.300652380519	0
3	2408	8.300652380519	0
3	2420	8.300696380519	0
3	2420	8.300696380519	0
3	2440	8.5	0
3	2440	8.5	2
3	2441	8.5	2
3	2441	8.5	0
3	2444	8.5	0
3	2444	8.5	0
3	2484	8.50150440092	0
3	2484	8.50150440092	0
3	2492	8.597627004609	0
3	2492	8.597627004609	2
3	2493	8.597627004609	2
3	2493	8.597627004609	0
3	2496	8.597627004609	0
3	2496	8.597627004609	0
3	2538	8.599131405529	0
3	2538	8.599131405529	0
3	2548	8.599291405529	0
3	2548	8.599291405529	0
3	2558	8.600735405529	0
3	2558	8.600735405529	0
3	2565	8.600751405529	0
3	2565	8.600751405529	0
3	2577	8.600795405529	0
3	2577	8.600795405529	0
3	2595	8.757399269169	0
3	2595	8.757399269169	2
3	2596	8.757399269169	2
3	2596	8.757399269169	0
3	2599	8.757399269169	0
3	2599	8.757399269169	0
3	2606	8.757563269169	0
3	2606	8.757563269169	0
3	2636	8.897627004609	0
3	2636	8.897627004609	2
3	2637	8.897627004609	2
3	2637	8.897627004609	0
3	2640	8.897627004609	0
3	2640	8.897627004609	0
3	2682	8.899131430499	0
3	2682	8.899131430499	0
3	2692	8.899282430499	0
3	2692	8.899282430499	0
3	2702	8.900726430499	0
3	2702	8.900726430499	0
3	2709	8.900742430499	0
3	2709	8.900742430499	0
3	2721	8.900786430499	0
3	2721	8.900786430499	0
3	2739	9	0
3	2739	9	2
3	2740	9	2
3	2740	9	0
3	2743	9	0
3	2743	9	0
3	2783	9.001504442588	0
3	2783	9.001504442588	0
3	2800	9.10806524337	0
3	2800	9.10806524337	0
3	2818	9.10822924337	0
3	2818	9.10822924337	0
3	2828	9.197627004609	0
3	2828	9.197627004609	2
3	2829	9.197627004609	2
3	2829	9.197627004609	0
3	2832	9.197627004609	0
3	2832	9.197627004609	0
3	2874	9.199131455557	0
3	2874	9.199131455557	0
3	2884	9.199300455557	0
3	2884	9.199300455557	0
3	2894	9.200744455557	0
3	2894	9.200744455557	0
3	2901	9.200760455557	0
3	2901	9.200760455557	0
3	2913	9.200804455557	0
3	2913	9.200804455557	0
3	2939	9.300517953811	0
3	2939	9.300517953811	0
3	2957	9.300693953811	0
3	2957	9.300693953811	0
3	2971	9.308984069316	0
3	2971	9.308984069316	0
3	2977	9.309160069316	0
3	2977	9.309160069316	0
3	3013	9.460748932835	0
3	3013	9.460748932835	0
3	3031	9.460912932835	0
3	3031	9.460912932835	0
3	3041	9.497627004609	0
3	3041	9.497627004609	2
3	3042	9.497627004609	2
3	3042	9.497627004609	0
3	3045	9.497627004609	0
3	3045	9.497627004609	0
3	3087	9.499131480499	0
3	3087	9.499131480499	0
3	3097	9.499228480499	0
3	3097	9.499228480499	0
3	3103	9.5	0
3	3103	9.5	1
3	3112	9.500672480499	1
3	3112	9.500672480499	2
3	3119	9.500688480499	2
3	3119	9.500688480499	1
3	3131	9.500732480499	1
3	3131	9.500732480499	2
3	3140	9.500784480499	2
3	3140	9.500784480499	0
3	3143	9.500784480499	0
3	3143	9.500784480499	0
3	3183	9.502288964735	0
3	3183	9.502288964735	0
3	3201	9.797627004609	0
3	3201	9.797627004609	2
3	3202	9.797627004609	2
3	3202	9.797627004609	0
3	3205	9.797627004609	0
3	3205	9.797627004609	0
3	3254	9.799131505491	0
3	3254	9.799131505491	0
3	3265	9.799183505491	0
3	3265	9.799183505491	0
3	3277	9.800627505491	0
3	3277	9.800627505491	0
3	3284	9.800643505491	0
3	3284	9.800643505491	0
3	3298	9.800687505491	0
3	3298	9.800687505491	0
3	3322	10	0
3	3322	10	2
3	3323	10	2
3	3323	10	0
3	3326	10	0
3	3326	10	0
3	3380	10.001504529896	0
3	3380	10.001504529896	0
3	3388	10.097627004609	0
3	3388	10.097627004609	2
3	3389	10.097627004609	2
3	3389	10.097627004609	0
3	3392	10.097627004609	0
3	3392	10.097627004609	0
3	3448	10.099131534505	0
3	3448	10.099131534505	0
3	3460	10.099264534505	0
3	3460	10.099264534505	0
3	3474	10.100708534505	0
3	3474	10.100708534505	0
3	3481	10.100724534505	0
3	3481	10.100724534505	0
3	3497	10.100768534505	0
3	3497	10.100768534505	0
3	3522	10.397627004609	0
3	3522	10.397627004609	2
3	3523	10.397627004609	2
3	3523	10.397627004609	0
3	3526	10.397627004609	0
3	3526	10.397627004609	0
3	3582	10.399131558719	0
3	3582	10.399131558719	0
3	3594	10.399174558719	0
3	3594	10.399174558719	0
3	3608	10.400618558719	0
3	3608	10.400618558719	0
3	3615	10.400634558719	0
3	3615	10.400634558719	0
3	3631	10.400678558719	0
3	3631	10.400678558719	0
3	3662	10.434726833964	0
3	3662	10.434726833964	0
3	3690	10.434890833964	0
3	3690	10.434890833964	0
3	3703	10.5	0
3	3703	10.5	2
3	3704	10.5	2
3	3704	10.5	0
3	3707	10.5	0
3	3707	10.5	0
3	3761	10.501504563598	0
3	3761	10.501504563598	0
3	3770	10.680020019783	0
3	3770	10.680020019783	2
3	3771	10.680020019783	2
3	3771	10.680020019783	0
3	3774	10.680020019783	0
3	3774	10.680020019783	0
3	3783	10.680184019783	0
3	3783	10.680184019783	0
3	3825	10.682531988599	0
3	3825	10.682531988599	0
3	3833	10.682695988599	0
3	3833	10.682695988599	0
3	3871	10.697627004609	0
3	3871	10.697627004609	2
3	3872	10.697627004609	2
3	3872	10.697627004609	0
3	3875	10.697627004609	0
3	3875	10.697627004609	0
3	3931	10.699131570773	0
3	3931	10.699131570773	0
3	3943	10.699219570773	0
3	3943	10.699219570773	0
3	3957	10.700663570773	0
3	3957	10.700663570773	0
3	3964	10.700679570773	0
3	3964	10.700679570773	0
3	3980	10.700723570773	0
3	3980	10.700723570773	0
3	4014	10.882470763704	0
3	4014	10.882470763704	0
3	4042	10.882634763704	0
3	4042	10.882634763704	0
3	4055	10.997627004609	0
3	4055	10.997627004609	2
3	4056	10.997627004609	2
3	4056	10.997627004609	0
3	4059	10.997627004609	0
3	4059	10.997627004609	0
3	4115	10.999131574289	0
3	4115	10.999131574289	0
3	4127	10.999165574289	0
3	4127	10.999165574289	0
3	4133	11	0
3	4133	11	1
3	4146	11.000609574289	1
3	4146	11.000609574289	2
3	4153	11.000625574289	2
3	4153	11.000625574289	1
3	4169	11.000669574289	1
3	4169	11.000669574289	2
3	4182	11.000703574289	2
3	4182	11.000703574289	0
3	4185	11.000703574289	0
3	4185	11.000703574289	0
3	4239	11.002208144093	0
3	4239	11.002208144093	0
3	4262	11.163257277679	0
3	4262	11.163257277679	0
3	4290	11.163421277679	0
3	4290	11.163421277679	0
3	4303	11.297627004609	0
3	4303	11.297627004609	2
3	4304	11.297627004609	2
3	4304	11.297627004609	0
3	4307	11.297627004609	0
3	4307	11.297627004609	0
3	4363	11.299131575167	0
3	4363	11.299131575167	0
3	4375	11.299291575167	0
3	4375	11.299291575167	0
3	4389	11.300735575167	0
3	4389	11.300735575167	0
3	4396	11.300751575167	0
[...]
162	18643	22.592531998034	0
162	18643	22.592531998034	0
162	18711	22.683529511364	0
162	18711	22.683529511364	0
162	18748	22.683673511364	0
162	18748	22.683673511364	0
162	18793	22.69762737852	0
162	18793	22.69762737852	0
162	18821	22.69907137852	0
162	18821	22.69907137852	0
162	18822	22.69907137852	0
162	18822	22.69907137852	0
162	18865	22.699131441978	0
162	18865	22.699131441978	0
162	18886	22.699183441978	0
162	18886	22.699183441978	0
162	18906	22.700627441978	0
162	18906	22.700627441978	0
162	18907	22.700627441978	0
162	18907	22.700627441978	0
162	18966	22.700688088873	0
162	18966	22.700688088873	0
162	18991	22.709931434266	0
162	18991	22.709931434266	0
162	19044	22.710131434266	0
162	19044	22.710131434266	0
162	19079	22.99762737585	0
162	19079	22.99762737585	0
162	19107	22.99907137585	0
162	19107	22.99907137585	0
162	19108	22.99907137585	0
162	19108	22.99907137585	0
162	19151	22.99913144272	0
162	19151	22.99913144272	0
162	19172	22.99920144272	0
162	19172	22.99920144272	0
162	19197	23.00064544272	0
162	19197	23.00064544272	0
162	19198	23.00064544272	0
162	19198	23.00064544272	0
162	19257	23.000706087664	0
162	19257	23.000706087664	0
162	19275	23.000749087664	0
162	19275	23.000749087664	0
162	19301	23.002193087664	0
162	19301	23.002193087664	0
162	19302	23.002193087664	0
162	19302	23.002193087664	0
162	19345	23.002253155676	0
162	19345	23.002253155676	0
162	19376	23.165558233458	0
162	19376	23.165558233458	0
162	19405	23.165758233458	0
162	19405	23.165758233458	0
162	19472	23.297627373767	0
162	19472	23.297627373767	0
162	19500	23.299071373767	0
162	19500	23.299071373767	0
162	19501	23.299071373767	0
162	19501	23.299071373767	0
162	19544	23.29913144408	0
162	19544	23.29913144408	0
162	19565	23.29921944408	0
162	19565	23.29921944408	0
162	19585	23.30066344408	0
162	19585	23.30066344408	0
162	19586	23.30066344408	0
162	19586	23.30066344408	0
162	19645	23.300724088344	0
162	19645	23.300724088344	0
162	19668	23.316148481929	0
162	19668	23.316148481929	0
162	19705	23.316348481929	0
162	19705	23.316348481929	0
162	19753	23.486672929787	0
162	19753	23.486672929787	0
162	19774	23.486872929787	0
162	19774	23.486872929787	0
162	19839	23.500000367681	0
162	19839	23.500000367681	0
162	19864	23.501444367681	0
162	19864	23.501444367681	0
162	19865	23.501444367681	0
162	19865	23.501444367681	0
162	19909	23.501504441465	0
162	19909	23.501504441465	0
162	19949	23.59762737229	0
162	19949	23.59762737229	0
162	19976	23.59907137229	0
162	19976	23.59907137229	0
162	19977	23.59907137229	0
162	19977	23.59907137229	0
162	20021	23.599131446074	0
162	20021	23.599131446074	0
162	20043	23.599201446074	0
162	20043	23.599201446074	0
162	20063	23.600645446074	0
162	20063	23.600645446074	0
162	20064	23.600645446074	0
162	20064	23.600645446074	0
162	20121	23.60070609092	0
162	20121	23.60070609092	0
162	20146	23.611815265816	0
162	20146	23.611815265816	0
162	20183	23.612015265816	0
162	20183	23.612015265816	0
162	20236	23.722441087687	0
162	20236	23.722441087687	0
162	20250	23.722653087687	0
162	20250	23.722653087687	0
162	20323	23.87398384162	0
162	20323	23.87398384162	0
162	20352	23.87418384162	0
162	20352	23.87418384162	0
163	13680	19.9	0
163	13680	19.9	0
163	13699	19.909209942871	0
163	13699	19.909209942871	0
163	13736	19.909401942871	0
163	13736	19.909401942871	0
163	13778	19.911764162571	0
163	13778	19.911764162571	0
163	13819	19.911956162571	0
163	13819	19.911956162571	0
163	13862	19.997627425276	0
163	13862	19.997627425276	0
163	13891	19.999071425276	0
163	13891	19.999071425276	0
163	13892	19.999071425276	0
163	13892	19.999071425276	0
163	13935	19.999131460706	0
163	13935	19.999131460706	0
163	13955	19.999264460706	0
163	13955	19.999264460706	0
163	13981	20.000708460706	0
163	13981	20.000708460706	0
163	13982	20.000708460706	0
163	13982	20.000708460706	0
163	14041	20.000769179792	0
163	14041	20.000769179792	0
163	14058	20.000866179792	0
163	14058	20.000866179792	0
163	14085	20.002310179792	0
163	14085	20.002310179792	0
163	14086	20.002310179792	0
163	14086	20.002310179792	0
163	14129	20.00237021617	0
163	14129	20.00237021617	0
163	14152	20.040981872243	0
163	14152	20.040981872243	0
163	14165	20.041173872243	0
163	14165	20.041173872243	0
163	14256	20.29762741849	0
163	14256	20.29762741849	0
163	14285	20.29907141849	0
163	14285	20.29907141849	0
163	14286	20.29907141849	0
163	14286	20.29907141849	0
163	14329	20.29913145676	0
163	14329	20.29913145676	0
163	14349	20.29917445676	0
163	14349	20.29917445676	0
163	14371	20.30061845676	0
163	14371	20.30061845676	0
163	14372	20.30061845676	0
163	14372	20.30061845676	0
163	14431	20.300679163242	0
163	14431	20.300679163242	0
163	14450	20.389732514964	0
163	14450	20.389732514964	0
163	14479	20.389868514964	0
163	14479	20.389868514964	0
163	14529	20.416606283762	0
163	14529	20.416606283762	0
163	14554	20.416798283762	0
163	14554	20.416798283762	0
163	14618	20.500000407406	0
163	14618	20.500000407406	0
163	14645	20.501444407406	0
163	14645	20.501444407406	0
163	14646	20.501444407406	0
163	14646	20.501444407406	0
163	14687	20.50150444858	0
163	14687	20.50150444858	0
163	14718	20.518394298714	0
163	14718	20.518394298714	0
163	14771	20.518586298714	0
163	14771	20.518586298714	0
163	14788	20.582710666115	0
163	14788	20.582710666115	0
163	14801	20.582922666115	0
163	14801	20.582922666115	0
163	14879	20.597627412015	0
163	14879	20.597627412015	0
163	14908	20.599071412015	0
163	14908	20.599071412015	0
163	14909	20.599071412015	0
163	14909	20.599071412015	0
163	14950	20.599131453189	0
163	14950	20.599131453189	0
163	14971	20.599183453189	0
163	14971	20.599183453189	0
163	14991	20.600627453189	0
163	14991	20.600627453189	0
163	14992	20.600627453189	0
163	14992	20.600627453189	0
163	15053	20.60068814816	0
163	15053	20.60068814816	0
163	15086	20.778002475285	0
163	15086	20.778002475285	0
163	15119	20.778198475285	0
163	15119	20.778198475285	0
163	15171	20.842748510174	0
163	15171	20.842748510174	0
163	15224	20.842964510174	0
163	15224	20.842964510174	0
163	15251	20.897627405858	0
163	15251	20.897627405858	0
163	15280	20.899071405858	0
163	15280	20.899071405858	0
163	15281	20.899071405858	0
163	15281	20.899071405858	0
163	15322	20.899131449973	0
163	15322	20.899131449973	0
163	15343	20.899273449973	0
163	15343	20.899273449973	0
163	15363	20.900717449973	0
163	15363	20.900717449973	0
163	15364	20.900717449973	0
163	15364	20.900717449973	0
163	15425	20.900778134565	0
163	15425	20.900778134565	0
163	15452	21.000000397359	0
163	15452	21.000000397359	0
163	15479	21.001444397359	0
163	15479	21.001444397359	0
163	15480	21.001444397359	0
163	15480	21.001444397359	0
163	15521	21.001504443502	0
163	15521	21.001504443502	0
163	15553	21.115073042818	0
163	15553	21.115073042818	0
163	15594	21.115269042818	0
163	15594	21.115269042818	0
163	15631	21.160490677381	0
163	15631	21.160490677381	0
163	15660	21.160686677381	0
163	15660	21.160686677381	0
163	15721	21.1976274001	0
163	15721	21.1976274001	0
163	15750	21.1990714001	0
163	15750	21.1990714001	0
163	15751	21.1990714001	0
163	15751	21.1990714001	0
163	15792	21.199131447268	0
163	15792	21.199131447268	0
163	15813	21.199219447268	0
163	15813	21.199219447268	0
163	15833	21.200663447268	0
163	15833	21.200663447268	0
163	15834	21.200663447268	0
163	15834	21.200663447268	0
163	15895	21.20072412256	0
163	15895	21.20072412256	0
163	15917	21.228592287146	0
163	15917	21.228592287146	0
163	15942	21.228728287146	0
163	15942	21.228728287146	0
163	16002	21.239330777508	0
163	16002	21.239330777508	0
163	16055	21.239466777508	0
163	16055	21.239466777508	0
163	16080	21.392559196194	0
163	16080	21.392559196194	0
163	16117	21.392695196194	0
163	16117	21.392695196194	0
163	16180	21.425807086875	0
163	16180	21.425807086875	0
163	16233	21.426003086875	0
163	16233	21.426003086875	0
163	16250	21.454199516549	0
163	16250	21.454199516549	0
163	16263	21.454335516549	0
163	16263	21.454335516549	0
163	16335	21.494107772147	0
163	16335	21.494107772147	0
163	16376	21.494323772147	0
163	16376	21.494323772147	0
163	16416	21.497627394778	0
163	16416	21.497627394778	0
163	16445	21.499071394778	0
163	16445	21.499071394778	0
163	16446	21.499071394778	0
163	16446	21.499071394778	0
163	16487	21.499131445053	0
163	16487	21.499131445053	0
163	16508	21.499246445053	0
163	16508	21.499246445053	0
163	16533	21.500690445053	0
163	16533	21.500690445053	0
163	16534	21.500690445053	0
163	16534	21.500690445053	0
163	16595	21.500751112259	0
163	16595	21.500751112259	0
163	16612	21.500794112259	0
163	16612	21.500794112259	0
163	16639	21.502238112259	0
163	16639	21.502238112259	0
163	16640	21.502238112259	0
163	16640	21.502238112259	0
163	16681	21.502298163591	0
163	16681	21.502298163591	0
163	16716	21.647681079082	0
163	16716	21.647681079082	0
163	16753	21.647877079082	0
163	16753	21.647877079082	0
163	16794	21.686357185792	0
163	16794	21.686357185792	0
163	16831	21.686493185792	0
163	16831	21.686493185792	0
163	16872	21.693111949885	0
163	16872	21.693111949885	0
163	16913	21.693247949885	0
163	16913	21.693247949885	0
163	16966	21.797627389925	0
163	16966	21.797627389925	0
163	16996	21.799071389925	0
163	16996	21.799071389925	0
163	16997	21.799071389925	0
163	16997	21.799071389925	0
163	17038	21.799131443387	0
163	17038	21.799131443387	0
163	17059	21.799219443387	0
163	17059	21.799219443387	0
163	17079	21.800663443387	0
163	17079	21.800663443387	0
163	17080	21.800663443387	0
163	17080	21.800663443387	0
163	17141	21.800724103681	0
163	17141	21.800724103681	0
163	17173	21.849284289539	0
163	17173	21.849284289539	0
163	17210	21.849480289539	0
163	17210	21.849480289539	0
163	17263	21.875370551451	0
163	17263	21.875370551451	0
163	17280	21.875566551451	0
163	17280	21.875566551451	0
163	17356	22.000000380967	0
163	17356	22.000000380967	0
163	17382	22.001444380967	0
163	17382	22.001444380967	0
163	17383	22.001444380967	0
163	17383	22.001444380967	0
163	17426	22.001504437696	0
163	17426	22.001504437696	0
163	17459	22.059678210834	0
163	17459	22.059678210834	0
163	17484	22.059886210834	0
163	17484	22.059886210834	0
163	17534	22.084292301536	0
163	17534	22.084292301536	0
163	17548	22.084516301536	0
163	17548	22.084516301536	0
163	17624	22.097627385576	0
163	17624	22.097627385576	0
163	17652	22.099071385576	0
163	17652	22.099071385576	0
163	17653	22.099071385576	0
163	17653	22.099071385576	0
163	17696	22.099131442305	0
163	17696	22.099131442305	0
163	17717	22.099255442305	0
163	17717	22.099255442305	0
163	17737	22.100699442305	0
163	17737	22.100699442305	0
163	17738	22.100699442305	0
163	17738	22.100699442305	0
163	17797	22.100760096897	0
163	17797	22.100760096897	0
163	17826	22.188456660713	0
163	17826	22.188456660713	0
163	17879	22.188592660713	0
163	17879	22.188592660713	0
163	17908	22.219725152529	0
163	17908	22.219725152529	0
163	17945	22.219861152529	0
163	17945	22.219861152529	0
163	17995	22.397627381769	0
163	17995	22.397627381769	0
163	18023	22.399071381769	0
163	18023	22.399071381769	0
163	18024	22.399071381769	0
163	18024	22.399071381769	0
163	18067	22.39913144183	0
163	18067	22.39913144183	0
163	18088	22.39930044183	0
163	18088	22.39930044183	0
163	18108	22.40074444183	0
163	18108	22.40074444183	0
163	18109	22.40074444183	0
163	18109	22.40074444183	0
163	18168	22.400805091956	0
163	18168	22.400805091956	0
163	18191	22.45164727776	0
163	18191	22.45164727776	0
163	18228	22.45184727776	0
163	18228	22.45184727776	0
163	18275	22.500000374933	0
163	18275	22.500000374933	0
163	18301	22.501444374933	0
163	18301	22.501444374933	0
163	18302	22.501444374933	0
163	18302	22.501444374933	0
163	18345	22.501504437263	0
163	18345	22.501504437263	0
163	18371	22.504900354417	0
163	18371	22.504900354417	0
163	18412	22.505100354417	0
163	18412	22.505100354417	0
163	18471	22.545627581635	0
163	18471	22.545627581635	0
163	18520	22.545827581635	0
163	18520	22.545827581635	0
163	18549	22.549223697709	0
163	18549	22.549223697709	0
163	18602	22.549423697709	0
163	18602	22.549423697709	0
163	18626	22.592319998034	0
163	18626	22.592319998034	0
163	18643	22.592531998034	0
163	18643	22.592531998034	0
163	18711	22.683529511364	0
163	18711	22.683529511364	0
163	18748	22.683673511364	0
163	18748	22.683673511364	0
163	18793	22.69762737852	0
163	18793	22.69762737852	0
163	18821	22.69907137852	0
163	18821	22.69907137852	0
163	18822	22.69907137852	0
163	18822	22.69907137852	0
163	18865	22.699131441978	0
163	18865	22.699131441978	0
163	18886	22.699183441978	0
163	18886	22.699183441978	0
163	18906	22.700627441978	0
163	18906	22.700627441978	0
163	18907	22.700627441978	0
163	18907	22.700627441978	0
163	18966	22.700688088873	0
163	18966	22.700688088873	0
163	18991	22.709931434266	0
163	18991	22.709931434266	0
163	19044	22.710131434266	0
163	19044	22.710131434266	0
163	19079	22.99762737585	0
163	19079	22.99762737585	0
163	19107	22.99907137585	0
163	19107	22.99907137585	0
163	19108	22.99907137585	0
163	19108	22.99907137585	0
163	19151	22.99913144272	0
163	19151	22.99913144272	0
163	19172	22.99920144272	0
163	19172	22.99920144272	0
163	19197	23.00064544272	0
163	19197	23.00064544272	0
163	19198	23.00064544272	0
163	19198	23.00064544272	0
163	19257	23.000706087664	0
163	19257	23.000706087664	0
163	19275	23.000749087664	0
163	19275	23.000749087664	0
163	19301	23.002193087664	0
163	19301	23.002193087664	0
163	19302	23.002193087664	0
163	19302	23.002193087664	0
163	19345	23.002253155676	0
163	19345	23.002253155676	0
163	19376	23.165558233458	0
163	19376	23.165558233458	0
163	19405	23.165758233458	0
163	19405	23.165758233458	0
163	19472	23.297627373767	0
163	19472	23.297627373767	0
163	19500	23.299071373767	0
163	19500	23.299071373767	0
163	19501	23.299071373767	0
163	19501	23.299071373767	0
163	19544	23.29913144408	0
163	19544	23.29913144408	0
163	19565	23.29921944408	0
163	19565	23.29921944408	0
163	19585	23.30066344408	0
163	19585	23.30066344408	0
163	19586	23.30066344408	0
163	19586	23.30066344408	0
163	19645	23.300724088344	0
163	19645	23.300724088344	0
163	19668	23.316148481929	0
163	19668	23.316148481929	0
163	19705	23.316348481929	0
163	19705	23.316348481929	0
163	19753	23.486672929787	0
163	19753	23.486672929787	0
163	19774	23.486872929787	0
163	19774	23.486872929787	0
163	19839	23.500000367681	0
163	19839	23.500000367681	0
163	19864	23.501444367681	0
163	19864	23.501444367681	0
163	19865	23.501444367681	0
163	19865	23.501444367681	0
163	19909	23.501504441465	0
163	19909	23.501504441465	0
163	19949	23.59762737229	0
163	19949	23.59762737229	0
163	19976	23.59907137229	0
163	19976	23.59907137229	0
163	19977	23.59907137229	0
163	19977	23.59907137229	0
163	20021	23.599131446074	0
163	20021	23.599131446074	0
163	20043	23.599201446074	0
163	20043	23.599201446074	0
163	20063	23.600645446074	0
163	20063	23.600645446074	0
163	20064	23.600645446074	0
163	20064	23.600645446074	0
163	20121	23.60070609092	0
163	20121	23.60070609092	0
163	20146	23.611815265816	0
163	20146	23.611815265816	0
163	20183	23.612015265816	0
163	20183	23.612015265816	0
163	20236	23.722441087687	0
163	20236	23.722441087687	0
163	20250	23.722653087687	0
163	20250	23.722653087687	0
163	20323	23.87398384162	0
163	20323	23.87398384162	0
163	20352	23.87418384162	0
163	20352	23.87418384162	0
164	13737	19.909401942871	124
164	13820	19.911956162571	124
164	13892	19.999071425276	1064
164	13936	19.999131460706	14
164	13982	20.000708460706	1064
164	14042	20.000769179792	14
164	14086	20.002310179792	1064
164	14130	20.00237021617	14
164	14166	20.041173872243	124
164	14286	20.29907141849	1064
164	14330	20.29913145676	14
164	14372	20.30061845676	1064
164	14432	20.300679163242	14
164	14480	20.389868514964	84
164	14555	20.416798283762	124
164	14646	20.501444407406	1064
164	14688	20.50150444858	14
164	14772	20.518586298714	124
164	14802	20.582922666115	140
164	14909	20.599071412015	1064
164	14951	20.599131453189	14
164	14992	20.600627453189	1064
164	15054	20.60068814816	14
164	15120	20.778198475285	128
164	15225	20.842964510174	144
164	15281	20.899071405858	1064
164	15323	20.899131449973	14
164	15364	20.900717449973	1064
164	15426	20.900778134565	14
164	15480	21.001444397359	1064
164	15522	21.001504443502	14
164	15595	21.115269042818	128
164	15661	21.160686677381	128
164	15751	21.1990714001	1064
164	15793	21.199131447268	14
164	15834	21.200663447268	1064
164	15896	21.20072412256	14
164	15943	21.228728287146	84
164	16056	21.239466777508	84
164	16118	21.392695196194	84
164	16234	21.426003086875	128
164	16264	21.454335516549	84
164	16377	21.494323772147	144
164	16446	21.499071394778	1064
164	16488	21.499131445053	14
164	16534	21.500690445053	1064
164	16596	21.500751112259	14
164	16640	21.502238112259	1064
164	16682	21.502298163591	14
164	16754	21.647877079082	128
164	16832	21.686493185792	84
164	16914	21.693247949885	84
164	16997	21.799071389925	1064
164	17039	21.799131443387	14
164	17080	21.800663443387	1064
164	17142	21.800724103681	14
164	17211	21.849480289539	128
164	17281	21.875566551451	128
164	17383	22.001444380967	1064
164	17427	22.001504437696	14
164	17485	22.059886210834	136
164	17653	22.099071385576	1064
164	17697	22.099131442305	14
164	17738	22.100699442305	1064
164	17798	22.100760096897	14
164	17880	22.188592660713	84
164	17946	22.219861152529	84
164	18024	22.399071381769	1064
164	18068	22.39913144183	14
164	18109	22.40074444183	1064
164	18169	22.400805091956	14
164	18229	22.45184727776	132
164	18302	22.501444374933	1064
164	18346	22.501504437263	14
164	18413	22.505100354417	132
164	18521	22.545827581635	132
164	18603	22.549423697709	132
164	18644	22.592531998034	140
164	18749	22.683673511364	88
164	18822	22.69907137852	1064
164	18866	22.699131441978	14
164	18907	22.700627441978	1064
164	18967	22.700688088873	14
164	19045	22.710131434266	132
164	19108	22.99907137585	1064
164	19152	22.99913144272	14
164	19198	23.00064544272	1064
164	19258	23.000706087664	14
164	19302	23.002193087664	1064
164	19346	23.002253155676	14
164	19406	23.165758233458	132
164	19501	23.299071373767	1064
164	19545	23.29913144408	14
164	19586	23.30066344408	1064
164	19646	23.300724088344	14
164	19706	23.316348481929	132
164	19775	23.486872929787	132
164	19865	23.501444367681	1064
164	19910	23.501504441465	14
164	19977	23.59907137229	1064
164	20022	23.599131446074	14
164	20064	23.600645446074	1064
164	20122	23.60070609092	14
164	20184	23.612015265816	132
164	20353	23.87418384162	132
165	13737	19.909401942871	124
165	13820	19.911956162571	124
165	14166	20.041173872243	124
165	14480	20.389868514964	84
165	14555	20.416798283762	124
165	14772	20.518586298714	124
165	14802	20.582922666115	140
165	15120	20.778198475285	128
165	15225	20.842964510174	144
165	15595	21.115269042818	128
165	15661	21.160686677381	128
165	15943	21.228728287146	84
165	16056	21.239466777508	84
165	16118	21.392695196194	84
165	16234	21.426003086875	128
165	16264	21.454335516549	84
165	16377	21.494323772147	144
165	16754	21.647877079082	128
165	16832	21.686493185792	84
165	16914	21.693247949885	84
165	17211	21.849480289539	128
165	17281	21.875566551451	128
165	17485	22.059886210834	136
165	17880	22.188592660713	84
165	17946	22.219861152529	84
165	18229	22.45184727776	132
165	18413	22.505100354417	132
165	18521	22.545827581635	132
165	18603	22.549423697709	132
165	18644	22.592531998034	140
165	18749	22.683673511364	88
165	19045	22.710131434266	132
165	19406	23.165758233458	132
165	19706	23.316348481929	132
165	19775	23.486872929787	132
165	20184	23.612015265816	132
165	20353	23.87418384162	132
166	14782	20.582710653846	140
166	18619	22.592319984874	140
167	14785	20.582710653846	140
167	18622	22.592319984874	140
168	14786	20.582710653846	1
168	14787	20.582710653846	2
168	14799	20.582922653846	1
168	14800	20.582922653846	0
168	18623	22.592319984874	1
168	18624	22.592319984874	2
168	18636	22.592531984874	1
168	18637	22.592531984874	0
169	17530	22.084292301536	148
169	20232	23.722441087687	140
170	17533	22.084292301536	148
170	20235	23.722441087687	140
171	17534	22.084292301536	1
171	17535	22.084292301536	2
171	17547	22.084516301536	1
171	17548	22.084516301536	0
171	20236	23.722441087687	1
171	20237	23.722441087687	2
171	20249	23.722653087687	1
171	20250	23.722653087687	0
