version 2
run General-0-20200528-19:43:40-9684
attr configname General
attr datetime 20200528-19:43:40
attr experiment General
attr inifile omnetpp.ini
attr iterationvars ""
attr iterationvarsf ""
attr measurement ""
attr network Scenario
attr processid 9684
attr repetition 0
attr replication #0
attr resultdir results
attr runnumber 0
attr seedset 0
param Scenario.node[0].numPingApps 1
param Scenario.node[0].pingApp[0].startTime uniform(0s,2s)
param Scenario.node[0].pingApp[0].printPing true
param Scenario.node[0].pingApp[0].destAddr "\"10.0.0.100\""
param Scenario.node[0].pingApp[0].packetSize 1000B
param Scenario.node[0].pingApp[0].sendInterval 0.3s
param Scenario.node[*].pingApp[0].printPing true
param Scenario.node[0].numUdpApps 1
param Scenario.node[0].udpApp[0].typename "\"UDPBasicApp\""
param Scenario.node[0].udpApp[0].destAddresses "\"10.0.0.100\""
param Scenario.node[0].udpApp[0].localPort 5000
param Scenario.node[0].udpApp[0].destPort 5000
param Scenario.node[0].udpApp[0].messageLength 1000B
param Scenario.node[0].udpApp[0].sendInterval 0.5s
param Scenario.node[0].udpApp[0].packetName "\"UDPData\""
param Scenario.node[1].numUdpApps 1
param Scenario.node[1].udpApp[0].typename "\"UDPSink\""
param Scenario.node[1].udpApp[0].localPort 5000
param Scenario.node[*].wlan[0].mgmtType "\"Ieee80211MgmtAdhoc\""
param Scenario.node[*].wlan[0].radio.transmitter.power 2mW
param Scenario.node[*].wlan[*].opMode "\"a\""
param Scenario.node[*].wlan[*].bitrate 6Mbps
param Scenario.radioMedium.pathLossType "\"FreeSpacePathLoss\""
param Scenario.node[*].ac_wlan.interfaces "\"wlan0\""
param Scenario.node[*].ac_wlan.addressBase "\"10.0.0.0\""
param Scenario.node[*].ac_wlan.netmask "\"255.255.0.0\""
param Scenario.node[*].ac_wlan.mcastGroups "\"224.0.0.1\""
param Scenario.node[*].mobilityType "\"VeinsInetMobility\""
param Scenario.node[*].mobility.constraintAreaMinX 0m
param Scenario.node[*].mobility.constraintAreaMinY 0m
param Scenario.node[*].mobility.constraintAreaMinZ 0m
param Scenario.node[*].mobility.constraintAreaMaxX 1000m
param Scenario.node[*].mobility.constraintAreaMaxY 1000m
param Scenario.node[*].mobility.constraintAreaMaxZ 0m
param Scenario.manager.numVehicles 10
param Scenario.manager.updateInterval 0.1s
param Scenario.manager.host "\"localhost\""
param Scenario.manager.port 9999
param Scenario.manager.autoShutdown true
param Scenario.manager.launchConfig "xmldoc(\"square.launchd.xml\")"
param Scenario.manager.moduleType "\"final_year_simulation.simulations.Car2\""
param Scenario.node[*].wlan[*].radio.displayCommunicationRange true
param Scenario.node[*].wlan[*].radio.displayInterferenceRange true

vector 0 Scenario.node[0].wlan[0].radio radioMode:vector ETV
attr interpolationmode sample-hold
attr source radioModeChanged
attr title "Radio mode, vector"
vector 1 Scenario.node[0].wlan[0].radio radioChannel:vector ETV
attr interpolationmode sample-hold
attr source radioChannelChanged
attr title "Radio channel, vector"
vector 2 Scenario.node[0].wlan[0].radio receptionState:vector ETV
attr interpolationmode sample-hold
attr source receptionStateChanged
attr title "Radio reception state, vector"
vector 3 Scenario.node[0].wlan[0].mac.dcf.channelAccess.contention state:vector ETV
attr interpolationmode none
attr source stateChanged
attr title "contention state, vector"
vector 4 Scenario.node[0].wlan[0].mac.hcf.edca.edcaf[0].contention state:vector ETV
attr interpolationmode none
attr source stateChanged
attr title "contention state, vector"
vector 5 Scenario.node[0].wlan[0].mac.hcf.edca.edcaf[1].contention state:vector ETV
attr interpolationmode none
attr source stateChanged
attr title "contention state, vector"
vector 6 Scenario.node[0].wlan[0].mac.hcf.edca.edcaf[2].contention state:vector ETV
attr interpolationmode none
attr source stateChanged
attr title "contention state, vector"
vector 7 Scenario.node[0].wlan[0].mac.hcf.edca.edcaf[3].contention state:vector ETV
attr interpolationmode none
attr source stateChanged
attr title "contention state, vector"
vector 8 Scenario.node[0].udpApp[0] sentPk:vector(packetBytes) ETV
attr interpolationmode none
attr source sentPk
attr title "packets sent, vector(packetBytes)"
vector 9 Scenario.node[0].udp sentPk:vector(packetBytes) ETV
attr interpolationmode none
attr source sentPk
attr title "packets sent, vector(packetBytes)"
vector 10 Scenario.node[0].pingApp[0] pingTxSeq:vector ETV
attr interpolationmode none
attr title "ping tx seq, vector"
vector 11 Scenario.node[1].wlan[0].radio radioMode:vector ETV
attr interpolationmode sample-hold
attr source radioModeChanged
attr title "Radio mode, vector"
vector 12 Scenario.node[1].wlan[0].radio radioChannel:vector ETV
attr interpolationmode sample-hold
attr source radioChannelChanged
attr title "Radio channel, vector"
vector 13 Scenario.node[1].wlan[0].radio receptionState:vector ETV
attr interpolationmode sample-hold
attr source receptionStateChanged
attr title "Radio reception state, vector"
vector 14 Scenario.node[1].wlan[0].mac.dcf.channelAccess.contention state:vector ETV
attr interpolationmode none
attr source stateChanged
attr title "contention state, vector"
vector 15 Scenario.node[1].wlan[0].mac.hcf.edca.edcaf[0].contention state:vector ETV
attr interpolationmode none
attr source stateChanged
attr title "contention state, vector"
vector 16 Scenario.node[1].wlan[0].mac.hcf.edca.edcaf[1].contention state:vector ETV
attr interpolationmode none
attr source stateChanged
attr title "contention state, vector"
vector 17 Scenario.node[1].wlan[0].mac.hcf.edca.edcaf[2].contention state:vector ETV
attr interpolationmode none
attr source stateChanged
attr title "contention state, vector"
vector 18 Scenario.node[1].wlan[0].mac.hcf.edca.edcaf[3].contention state:vector ETV
attr interpolationmode none
attr source stateChanged
attr title "contention state, vector"
vector 19 Scenario.node[0].wlan[0].mac rcvdPkFromHL:vector(packetBytes) ETV
attr interpolationmode none
attr source packetReceivedFromUpper
attr title "packets received from higher layer, vector(packetBytes)"
vector 20 Scenario.node[0].wlan[0].mac sentDownPk:vector(packetBytes) ETV
attr interpolationmode none
attr source packetSentToLower
attr title "packets sent to lower layer, vector(packetBytes)"
vector 21 Scenario.node[0].wlan[0].radio transmissionState:vector ETV
attr interpolationmode sample-hold
attr source transmissionStateChanged
attr title "Radio transmission state, vector"
vector 22 Scenario.node[1].wlan[0].mac rcvdPkFromLL:vector(packetBytes) ETV
attr interpolationmode none
attr source packetReceivedFromLower
attr title "packets received from lower layer, vector(packetBytes)"
vector 23 Scenario.node[1].wlan[0].mac passedUpPk:vector(packetBytes) ETV
attr interpolationmode none
attr source packetSentToUpper
attr title "packets passed to higher layer, vector(packetBytes)"
vector 24 Scenario.node[1].wlan[0].mac rcvdPkFromHL:vector(packetBytes) ETV
attr interpolationmode none
attr source packetReceivedFromUpper
attr title "packets received from higher layer, vector(packetBytes)"
vector 25 Scenario.node[1].wlan[0].mac sentDownPk:vector(packetBytes) ETV
attr interpolationmode none
attr source packetSentToLower
attr title "packets sent to lower layer, vector(packetBytes)"
vector 26 Scenario.node[1].wlan[0].radio transmissionState:vector ETV
attr interpolationmode sample-hold
attr source transmissionStateChanged
attr title "Radio transmission state, vector"
vector 27 Scenario.node[0].wlan[0].mac rcvdPkFromLL:vector(packetBytes) ETV
attr interpolationmode none
attr source packetReceivedFromLower
attr title "packets received from lower layer, vector(packetBytes)"
vector 28 Scenario.node[0].wlan[0].mac passedUpPk:vector(packetBytes) ETV
attr interpolationmode none
attr source packetSentToUpper
attr title "packets passed to higher layer, vector(packetBytes)"
vector 29 Scenario.node[0].networkLayer.arp sentReq:vector ETV
attr title "ARP request sent, vector"
vector 30 Scenario.node[1].networkLayer.arp sentReply:vector ETV
attr title "ARP replies sent, vector"
vector 31 Scenario.node[1].lo0.lo rcvdPkFromHL:vector(packetBytes) ETV
attr interpolationmode none
attr source packetReceivedFromUpper
attr title "packets received from higher layer, vector(packetBytes)"
vector 32 Scenario.node[1].lo0.lo passedUpPk:vector(packetBytes) ETV
attr interpolationmode none
attr source packetSentToUpper
attr title "packets passed to higher layer, vector(packetBytes)"
vector 33 Scenario.node[1].udp rcvdPk:vector(packetBytes) ETV
attr interpolationmode none
attr source rcvdPk
attr title "packets received, vector(packetBytes)"
vector 34 Scenario.node[1].udp passedUpPk:vector(count) ETV
attr interpolationmode none
attr title "packets passed up, vector(count)"
vector 35 Scenario.node[1].udpApp[0] rcvdPk:vector(packetBytes) ETV
attr interpolationmode none
attr source rcvdPk
attr title "packets received, vector(packetBytes)"
vector 36 Scenario.node[1].udpApp[0] throughput:vector ETV
attr source throughput(rcvdPk)
attr title "throughput, vector"
attr unit bps
vector 37 Scenario.node[1].udpApp[0] endToEndDelay:vector ETV
attr interpolationmode none
attr source messageAge(rcvdPk)
attr title "end-to-end delay, vector"
attr unit s
vector 38 Scenario.node[1].udpApp[0] rcvdPkSeqNo:vector ETV
attr interpolationmode none
attr source appPkSeqNo(rcvdPk)
attr title "received packet sequence number, vector"
vector 39 Scenario.node[0].pingApp[0] pingRxSeq:vector ETV
attr interpolationmode none
attr title "ping rx seq, vector"
vector 40 Scenario.node[0].pingApp[0] rtt:vector ETV
attr interpolationmode none
attr title "ping round-trip time, vector"
attr unit s
vector 41 Scenario.node[0].pingApp[0] numLost:vector ETV
attr interpolationmode none
attr title "pings lost, vector"
vector 42 Scenario.node[2].wlan[0].radio radioMode:vector ETV
attr interpolationmode sample-hold
attr source radioModeChanged
attr title "Radio mode, vector"
vector 43 Scenario.node[2].wlan[0].radio radioChannel:vector ETV
attr interpolationmode sample-hold
attr source radioChannelChanged
attr title "Radio channel, vector"
vector 44 Scenario.node[2].wlan[0].radio receptionState:vector ETV
attr interpolationmode sample-hold
attr source receptionStateChanged
attr title "Radio reception state, vector"
vector 45 Scenario.node[2].wlan[0].mac.dcf.channelAccess.contention state:vector ETV
attr interpolationmode none
attr source stateChanged
attr title "contention state, vector"
vector 46 Scenario.node[2].wlan[0].mac.hcf.edca.edcaf[0].contention state:vector ETV
attr interpolationmode none
attr source stateChanged
attr title "contention state, vector"
vector 47 Scenario.node[2].wlan[0].mac.hcf.edca.edcaf[1].contention state:vector ETV
attr interpolationmode none
attr source stateChanged
attr title "contention state, vector"
vector 48 Scenario.node[2].wlan[0].mac.hcf.edca.edcaf[2].contention state:vector ETV
attr interpolationmode none
attr source stateChanged
attr title "contention state, vector"
vector 49 Scenario.node[2].wlan[0].mac.hcf.edca.edcaf[3].contention state:vector ETV
attr interpolationmode none
attr source stateChanged
attr title "contention state, vector"
vector 50 Scenario.node[3].wlan[0].radio radioMode:vector ETV
attr interpolationmode sample-hold
attr source radioModeChanged
attr title "Radio mode, vector"
vector 51 Scenario.node[3].wlan[0].radio radioChannel:vector ETV
attr interpolationmode sample-hold
attr source radioChannelChanged
attr title "Radio channel, vector"
vector 52 Scenario.node[3].wlan[0].radio receptionState:vector ETV
attr interpolationmode sample-hold
attr source receptionStateChanged
attr title "Radio reception state, vector"
vector 53 Scenario.node[3].wlan[0].mac.dcf.channelAccess.contention state:vector ETV
attr interpolationmode none
attr source stateChanged
attr title "contention state, vector"
vector 54 Scenario.node[3].wlan[0].mac.hcf.edca.edcaf[0].contention state:vector ETV
attr interpolationmode none
attr source stateChanged
attr title "contention state, vector"
vector 55 Scenario.node[3].wlan[0].mac.hcf.edca.edcaf[1].contention state:vector ETV
attr interpolationmode none
attr source stateChanged
attr title "contention state, vector"
vector 56 Scenario.node[3].wlan[0].mac.hcf.edca.edcaf[2].contention state:vector ETV
attr interpolationmode none
attr source stateChanged
attr title "contention state, vector"
vector 57 Scenario.node[3].wlan[0].mac.hcf.edca.edcaf[3].contention state:vector ETV
attr interpolationmode none
attr source stateChanged
attr title "contention state, vector"
vector 58 Scenario.node[3].wlan[0].mac rcvdPkFromLL:vector(packetBytes) ETV
attr interpolationmode none
attr source packetReceivedFromLower
attr title "packets received from lower layer, vector(packetBytes)"
vector 59 Scenario.node[2].wlan[0].mac rcvdPkFromLL:vector(packetBytes) ETV
attr interpolationmode none
attr source packetReceivedFromLower
attr title "packets received from lower layer, vector(packetBytes)"
vector 60 Scenario.node[2].wlan[0].mac passedUpPk:vector(packetBytes) ETV
attr interpolationmode none
attr source packetSentToUpper
attr title "packets passed to higher layer, vector(packetBytes)"
vector 61 Scenario.node[3].wlan[0].mac passedUpPk:vector(packetBytes) ETV
attr interpolationmode none
attr source packetSentToUpper
attr title "packets passed to higher layer, vector(packetBytes)"
vector 62 Scenario.node[4].wlan[0].radio radioMode:vector ETV
attr interpolationmode sample-hold
attr source radioModeChanged
attr title "Radio mode, vector"
vector 63 Scenario.node[4].wlan[0].radio radioChannel:vector ETV
attr interpolationmode sample-hold
attr source radioChannelChanged
attr title "Radio channel, vector"
vector 64 Scenario.node[4].wlan[0].radio receptionState:vector ETV
attr interpolationmode sample-hold
attr source receptionStateChanged
attr title "Radio reception state, vector"
vector 65 Scenario.node[4].wlan[0].mac.dcf.channelAccess.contention state:vector ETV
attr interpolationmode none
attr source stateChanged
attr title "contention state, vector"
vector 66 Scenario.node[4].wlan[0].mac.hcf.edca.edcaf[0].contention state:vector ETV
attr interpolationmode none
attr source stateChanged
attr title "contention state, vector"
vector 67 Scenario.node[4].wlan[0].mac.hcf.edca.edcaf[1].contention state:vector ETV
attr interpolationmode none
attr source stateChanged
attr title "contention state, vector"
vector 68 Scenario.node[4].wlan[0].mac.hcf.edca.edcaf[2].contention state:vector ETV
attr interpolationmode none
attr source stateChanged
attr title "contention state, vector"
vector 69 Scenario.node[4].wlan[0].mac.hcf.edca.edcaf[3].contention state:vector ETV
attr interpolationmode none
attr source stateChanged
attr title "contention state, vector"
vector 70 Scenario.node[4].wlan[0].mac rcvdPkFromLL:vector(packetBytes) ETV
attr interpolationmode none
attr source packetReceivedFromLower
attr title "packets received from lower layer, vector(packetBytes)"
vector 71 Scenario.node[4].wlan[0].mac passedUpPk:vector(packetBytes) ETV
attr interpolationmode none
attr source packetSentToUpper
attr title "packets passed to higher layer, vector(packetBytes)"
vector 72 Scenario.node[3].wlan[0].mac rcvdPkFromHL:vector(packetBytes) ETV
attr interpolationmode none
attr source packetReceivedFromUpper
attr title "packets received from higher layer, vector(packetBytes)"
vector 73 Scenario.node[3].wlan[0].mac sentDownPk:vector(packetBytes) ETV
attr interpolationmode none
attr source packetSentToLower
attr title "packets sent to lower layer, vector(packetBytes)"
vector 74 Scenario.node[3].wlan[0].radio transmissionState:vector ETV
attr interpolationmode sample-hold
attr source transmissionStateChanged
attr title "Radio transmission state, vector"
vector 75 Scenario.node[2].wlan[0].mac rcvdPkFromHL:vector(packetBytes) ETV
attr interpolationmode none
attr source packetReceivedFromUpper
attr title "packets received from higher layer, vector(packetBytes)"
vector 76 Scenario.node[2].wlan[0].mac sentDownPk:vector(packetBytes) ETV
attr interpolationmode none
attr source packetSentToLower
attr title "packets sent to lower layer, vector(packetBytes)"
vector 77 Scenario.node[2].wlan[0].radio transmissionState:vector ETV
attr interpolationmode sample-hold
attr source transmissionStateChanged
attr title "Radio transmission state, vector"
vector 78 Scenario.node[4].wlan[0].mac rcvdPkFromHL:vector(packetBytes) ETV
attr interpolationmode none
attr source packetReceivedFromUpper
attr title "packets received from higher layer, vector(packetBytes)"
vector 79 Scenario.node[4].wlan[0].mac sentDownPk:vector(packetBytes) ETV
attr interpolationmode none
attr source packetSentToLower
attr title "packets sent to lower layer, vector(packetBytes)"
vector 80 Scenario.node[4].wlan[0].radio transmissionState:vector ETV
attr interpolationmode sample-hold
attr source transmissionStateChanged
attr title "Radio transmission state, vector"
vector 81 Scenario.node[5].wlan[0].radio radioMode:vector ETV
attr interpolationmode sample-hold
attr source radioModeChanged
attr title "Radio mode, vector"
vector 82 Scenario.node[5].wlan[0].radio radioChannel:vector ETV
attr interpolationmode sample-hold
attr source radioChannelChanged
attr title "Radio channel, vector"
vector 83 Scenario.node[5].wlan[0].radio receptionState:vector ETV
attr interpolationmode sample-hold
attr source receptionStateChanged
attr title "Radio reception state, vector"
vector 84 Scenario.node[5].wlan[0].mac.dcf.channelAccess.contention state:vector ETV
attr interpolationmode none
attr source stateChanged
attr title "contention state, vector"
vector 85 Scenario.node[5].wlan[0].mac.hcf.edca.edcaf[0].contention state:vector ETV
attr interpolationmode none
attr source stateChanged
attr title "contention state, vector"
vector 86 Scenario.node[5].wlan[0].mac.hcf.edca.edcaf[1].contention state:vector ETV
attr interpolationmode none
attr source stateChanged
attr title "contention state, vector"
vector 87 Scenario.node[5].wlan[0].mac.hcf.edca.edcaf[2].contention state:vector ETV
attr interpolationmode none
attr source stateChanged
attr title "contention state, vector"
vector 88 Scenario.node[5].wlan[0].mac.hcf.edca.edcaf[3].contention state:vector ETV
attr interpolationmode none
attr source stateChanged
attr title "contention state, vector"
vector 89 Scenario.node[5].wlan[0].mac rcvdPkFromLL:vector(packetBytes) ETV
attr interpolationmode none
attr source packetReceivedFromLower
attr title "packets received from lower layer, vector(packetBytes)"
vector 90 Scenario.node[6].wlan[0].radio radioMode:vector ETV
attr interpolationmode sample-hold
attr source radioModeChanged
attr title "Radio mode, vector"
vector 91 Scenario.node[6].wlan[0].radio radioChannel:vector ETV
attr interpolationmode sample-hold
attr source radioChannelChanged
attr title "Radio channel, vector"
vector 92 Scenario.node[6].wlan[0].radio receptionState:vector ETV
attr interpolationmode sample-hold
attr source receptionStateChanged
attr title "Radio reception state, vector"
vector 93 Scenario.node[6].wlan[0].mac.dcf.channelAccess.contention state:vector ETV
attr interpolationmode none
attr source stateChanged
attr title "contention state, vector"
vector 94 Scenario.node[6].wlan[0].mac.hcf.edca.edcaf[0].contention state:vector ETV
attr interpolationmode none
attr source stateChanged
attr title "contention state, vector"
vector 95 Scenario.node[6].wlan[0].mac.hcf.edca.edcaf[1].contention state:vector ETV
attr interpolationmode none
attr source stateChanged
attr title "contention state, vector"
vector 96 Scenario.node[6].wlan[0].mac.hcf.edca.edcaf[2].contention state:vector ETV
attr interpolationmode none
attr source stateChanged
attr title "contention state, vector"
vector 97 Scenario.node[6].wlan[0].mac.hcf.edca.edcaf[3].contention state:vector ETV
attr interpolationmode none
attr source stateChanged
attr title "contention state, vector"
vector 98 Scenario.node[6].wlan[0].mac rcvdPkFromLL:vector(packetBytes) ETV
attr interpolationmode none
attr source packetReceivedFromLower
attr title "packets received from lower layer, vector(packetBytes)"
vector 99 Scenario.node[5].wlan[0].mac passedUpPk:vector(packetBytes) ETV
attr interpolationmode none
attr source packetSentToUpper
attr title "packets passed to higher layer, vector(packetBytes)"
vector 100 Scenario.node[6].wlan[0].mac passedUpPk:vector(packetBytes) ETV
attr interpolationmode none
attr source packetSentToUpper
attr title "packets passed to higher layer, vector(packetBytes)"
vector 101 Scenario.node[5].wlan[0].mac rcvdPkFromHL:vector(packetBytes) ETV
attr interpolationmode none
attr source packetReceivedFromUpper
attr title "packets received from higher layer, vector(packetBytes)"
vector 102 Scenario.node[5].wlan[0].mac sentDownPk:vector(packetBytes) ETV
attr interpolationmode none
attr source packetSentToLower
attr title "packets sent to lower layer, vector(packetBytes)"
vector 103 Scenario.node[5].wlan[0].radio transmissionState:vector ETV
attr interpolationmode sample-hold
attr source transmissionStateChanged
attr title "Radio transmission state, vector"
vector 104 Scenario.node[6].wlan[0].mac rcvdPkFromHL:vector(packetBytes) ETV
attr interpolationmode none
attr source packetReceivedFromUpper
attr title "packets received from higher layer, vector(packetBytes)"
vector 105 Scenario.node[6].wlan[0].mac sentDownPk:vector(packetBytes) ETV
attr interpolationmode none
attr source packetSentToLower
attr title "packets sent to lower layer, vector(packetBytes)"
vector 106 Scenario.node[6].wlan[0].radio transmissionState:vector ETV
attr interpolationmode sample-hold
attr source transmissionStateChanged
attr title "Radio transmission state, vector"
vector 107 Scenario.node[7].wlan[0].radio radioMode:vector ETV
attr interpolationmode sample-hold
attr source radioModeChanged
attr title "Radio mode, vector"
vector 108 Scenario.node[7].wlan[0].radio radioChannel:vector ETV
attr interpolationmode sample-hold
attr source radioChannelChanged
attr title "Radio channel, vector"
vector 109 Scenario.node[7].wlan[0].radio receptionState:vector ETV
attr interpolationmode sample-hold
attr source receptionStateChanged
attr title "Radio reception state, vector"
vector 110 Scenario.node[7].wlan[0].mac.dcf.channelAccess.contention state:vector ETV
attr interpolationmode none
attr source stateChanged
attr title "contention state, vector"
vector 111 Scenario.node[7].wlan[0].mac.hcf.edca.edcaf[0].contention state:vector ETV
attr interpolationmode none
attr source stateChanged
attr title "contention state, vector"
vector 112 Scenario.node[7].wlan[0].mac.hcf.edca.edcaf[1].contention state:vector ETV
attr interpolationmode none
attr source stateChanged
attr title "contention state, vector"
vector 113 Scenario.node[7].wlan[0].mac.hcf.edca.edcaf[2].contention state:vector ETV
attr interpolationmode none
attr source stateChanged
attr title "contention state, vector"
vector 114 Scenario.node[7].wlan[0].mac.hcf.edca.edcaf[3].contention state:vector ETV
attr interpolationmode none
attr source stateChanged
attr title "contention state, vector"
vector 115 Scenario.node[7].wlan[0].mac rcvdPkFromLL:vector(packetBytes) ETV
attr interpolationmode none
attr source packetReceivedFromLower
attr title "packets received from lower layer, vector(packetBytes)"
vector 116 Scenario.node[7].wlan[0].mac passedUpPk:vector(packetBytes) ETV
attr interpolationmode none
attr source packetSentToUpper
attr title "packets passed to higher layer, vector(packetBytes)"
vector 117 Scenario.node[8].wlan[0].radio radioMode:vector ETV
attr interpolationmode sample-hold
attr source radioModeChanged
attr title "Radio mode, vector"
vector 118 Scenario.node[8].wlan[0].radio radioChannel:vector ETV
attr interpolationmode sample-hold
attr source radioChannelChanged
attr title "Radio channel, vector"
vector 119 Scenario.node[8].wlan[0].radio receptionState:vector ETV
attr interpolationmode sample-hold
attr source receptionStateChanged
attr title "Radio reception state, vector"
vector 120 Scenario.node[8].wlan[0].mac.dcf.channelAccess.contention state:vector ETV
attr interpolationmode none
attr source stateChanged
attr title "contention state, vector"
vector 121 Scenario.node[8].wlan[0].mac.hcf.edca.edcaf[0].contention state:vector ETV
attr interpolationmode none
attr source stateChanged
attr title "contention state, vector"
vector 122 Scenario.node[8].wlan[0].mac.hcf.edca.edcaf[1].contention state:vector ETV
attr interpolationmode none
attr source stateChanged
attr title "contention state, vector"
vector 123 Scenario.node[8].wlan[0].mac.hcf.edca.edcaf[2].contention state:vector ETV
attr interpolationmode none
attr source stateChanged
attr title "contention state, vector"
vector 124 Scenario.node[8].wlan[0].mac.hcf.edca.edcaf[3].contention state:vector ETV
attr interpolationmode none
attr source stateChanged
attr title "contention state, vector"
vector 125 Scenario.node[9].wlan[0].radio radioMode:vector ETV
attr interpolationmode sample-hold
attr source radioModeChanged
attr title "Radio mode, vector"
vector 126 Scenario.node[9].wlan[0].radio radioChannel:vector ETV
attr interpolationmode sample-hold
attr source radioChannelChanged
attr title "Radio channel, vector"
vector 127 Scenario.node[9].wlan[0].radio receptionState:vector ETV
attr interpolationmode sample-hold
attr source receptionStateChanged
attr title "Radio reception state, vector"
vector 128 Scenario.node[9].wlan[0].mac.dcf.channelAccess.contention state:vector ETV
attr interpolationmode none
attr source stateChanged
attr title "contention state, vector"
vector 129 Scenario.node[9].wlan[0].mac.hcf.edca.edcaf[0].contention state:vector ETV
attr interpolationmode none
attr source stateChanged
attr title "contention state, vector"
vector 130 Scenario.node[9].wlan[0].mac.hcf.edca.edcaf[1].contention state:vector ETV
attr interpolationmode none
attr source stateChanged
attr title "contention state, vector"
vector 131 Scenario.node[9].wlan[0].mac.hcf.edca.edcaf[2].contention state:vector ETV
attr interpolationmode none
attr source stateChanged
attr title "contention state, vector"
vector 132 Scenario.node[9].wlan[0].mac.hcf.edca.edcaf[3].contention state:vector ETV
attr interpolationmode none
attr source stateChanged
attr title "contention state, vector"
vector 133 Scenario.node[9].wlan[0].mac rcvdPkFromLL:vector(packetBytes) ETV
attr interpolationmode none
attr source packetReceivedFromLower
attr title "packets received from lower layer, vector(packetBytes)"
vector 134 Scenario.node[8].wlan[0].mac rcvdPkFromLL:vector(packetBytes) ETV
attr interpolationmode none
attr source packetReceivedFromLower
attr title "packets received from lower layer, vector(packetBytes)"
vector 135 Scenario.node[9].wlan[0].mac passedUpPk:vector(packetBytes) ETV
attr interpolationmode none
attr source packetSentToUpper
attr title "packets passed to higher layer, vector(packetBytes)"
vector 136 Scenario.node[8].wlan[0].mac passedUpPk:vector(packetBytes) ETV
attr interpolationmode none
attr source packetSentToUpper
attr title "packets passed to higher layer, vector(packetBytes)"
vector 137 Scenario.node[7].wlan[0].mac rcvdPkFromHL:vector(packetBytes) ETV
attr interpolationmode none
attr source packetReceivedFromUpper
attr title "packets received from higher layer, vector(packetBytes)"
vector 138 Scenario.node[7].wlan[0].mac sentDownPk:vector(packetBytes) ETV
attr interpolationmode none
attr source packetSentToLower
attr title "packets sent to lower layer, vector(packetBytes)"
vector 139 Scenario.node[7].wlan[0].radio transmissionState:vector ETV
attr interpolationmode sample-hold
attr source transmissionStateChanged
attr title "Radio transmission state, vector"
vector 140 Scenario.node[9].wlan[0].mac rcvdPkFromHL:vector(packetBytes) ETV
attr interpolationmode none
attr source packetReceivedFromUpper
attr title "packets received from higher layer, vector(packetBytes)"
vector 141 Scenario.node[9].wlan[0].mac sentDownPk:vector(packetBytes) ETV
attr interpolationmode none
attr source packetSentToLower
attr title "packets sent to lower layer, vector(packetBytes)"
vector 142 Scenario.node[9].wlan[0].radio transmissionState:vector ETV
attr interpolationmode sample-hold
attr source transmissionStateChanged
attr title "Radio transmission state, vector"
vector 143 Scenario.node[8].wlan[0].mac rcvdPkFromHL:vector(packetBytes) ETV
attr interpolationmode none
attr source packetReceivedFromUpper
attr title "packets received from higher layer, vector(packetBytes)"
vector 144 Scenario.node[8].wlan[0].mac sentDownPk:vector(packetBytes) ETV
attr interpolationmode none
attr source packetSentToLower
attr title "packets sent to lower layer, vector(packetBytes)"
vector 145 Scenario.node[8].wlan[0].radio transmissionState:vector ETV
attr interpolationmode sample-hold
attr source transmissionStateChanged
attr title "Radio transmission state, vector"
vector 146 Scenario.node[10].wlan[0].radio radioMode:vector ETV
attr interpolationmode sample-hold
attr source radioModeChanged
attr title "Radio mode, vector"
vector 147 Scenario.node[10].wlan[0].radio radioChannel:vector ETV
attr interpolationmode sample-hold
attr source radioChannelChanged
attr title "Radio channel, vector"
vector 148 Scenario.node[10].wlan[0].radio receptionState:vector ETV
attr interpolationmode sample-hold
attr source receptionStateChanged
attr title "Radio reception state, vector"
vector 149 Scenario.node[10].wlan[0].mac.dcf.channelAccess.contention state:vector ETV
attr interpolationmode none
attr source stateChanged
attr title "contention state, vector"
vector 150 Scenario.node[10].wlan[0].mac.hcf.edca.edcaf[0].contention state:vector ETV
attr interpolationmode none
attr source stateChanged
attr title "contention state, vector"
vector 151 Scenario.node[10].wlan[0].mac.hcf.edca.edcaf[1].contention state:vector ETV
attr interpolationmode none
attr source stateChanged
attr title "contention state, vector"
vector 152 Scenario.node[10].wlan[0].mac.hcf.edca.edcaf[2].contention state:vector ETV
attr interpolationmode none
attr source stateChanged
attr title "contention state, vector"
vector 153 Scenario.node[10].wlan[0].mac.hcf.edca.edcaf[3].contention state:vector ETV
attr interpolationmode none
attr source stateChanged
attr title "contention state, vector"
vector 154 Scenario.node[10].wlan[0].mac rcvdPkFromLL:vector(packetBytes) ETV
attr interpolationmode none
attr source packetReceivedFromLower
attr title "packets received from lower layer, vector(packetBytes)"
vector 155 Scenario.node[10].wlan[0].mac passedUpPk:vector(packetBytes) ETV
attr interpolationmode none
attr source packetSentToUpper
attr title "packets passed to higher layer, vector(packetBytes)"
vector 156 Scenario.node[11].wlan[0].radio radioMode:vector ETV
attr interpolationmode sample-hold
attr source radioModeChanged
attr title "Radio mode, vector"
vector 157 Scenario.node[11].wlan[0].radio radioChannel:vector ETV
attr interpolationmode sample-hold
attr source radioChannelChanged
attr title "Radio channel, vector"
vector 158 Scenario.node[11].wlan[0].radio receptionState:vector ETV
attr interpolationmode sample-hold
attr source receptionStateChanged
attr title "Radio reception state, vector"
vector 159 Scenario.node[11].wlan[0].mac.dcf.channelAccess.contention state:vector ETV
attr interpolationmode none
attr source stateChanged
attr title "contention state, vector"
vector 160 Scenario.node[11].wlan[0].mac.hcf.edca.edcaf[0].contention state:vector ETV
attr interpolationmode none
attr source stateChanged
attr title "contention state, vector"
vector 161 Scenario.node[11].wlan[0].mac.hcf.edca.edcaf[1].contention state:vector ETV
attr interpolationmode none
attr source stateChanged
attr title "contention state, vector"
vector 162 Scenario.node[11].wlan[0].mac.hcf.edca.edcaf[2].contention state:vector ETV
attr interpolationmode none
attr source stateChanged
attr title "contention state, vector"
vector 163 Scenario.node[11].wlan[0].mac.hcf.edca.edcaf[3].contention state:vector ETV
attr interpolationmode none
attr source stateChanged
attr title "contention state, vector"
vector 164 Scenario.node[11].wlan[0].mac rcvdPkFromLL:vector(packetBytes) ETV
attr interpolationmode none
attr source packetReceivedFromLower
attr title "packets received from lower layer, vector(packetBytes)"
vector 165 Scenario.node[11].wlan[0].mac passedUpPk:vector(packetBytes) ETV
attr interpolationmode none
attr source packetSentToUpper
attr title "packets passed to higher layer, vector(packetBytes)"
vector 166 Scenario.node[10].wlan[0].mac rcvdPkFromHL:vector(packetBytes) ETV
attr interpolationmode none
attr source packetReceivedFromUpper
attr title "packets received from higher layer, vector(packetBytes)"
vector 167 Scenario.node[10].wlan[0].mac sentDownPk:vector(packetBytes) ETV
attr interpolationmode none
attr source packetSentToLower
attr title "packets sent to lower layer, vector(packetBytes)"
vector 168 Scenario.node[10].wlan[0].radio transmissionState:vector ETV
attr interpolationmode sample-hold
attr source transmissionStateChanged
attr title "Radio transmission state, vector"
vector 169 Scenario.node[11].wlan[0].mac rcvdPkFromHL:vector(packetBytes) ETV
attr interpolationmode none
attr source packetReceivedFromUpper
attr title "packets received from higher layer, vector(packetBytes)"
vector 170 Scenario.node[11].wlan[0].mac sentDownPk:vector(packetBytes) ETV
attr interpolationmode none
attr source packetSentToLower
attr title "packets sent to lower layer, vector(packetBytes)"
vector 171 Scenario.node[11].wlan[0].radio transmissionState:vector ETV
attr interpolationmode sample-hold
attr source transmissionStateChanged
attr title "Radio transmission state, vector"
29	158	3.797627004609	1
19	77	2.339988585701	100
19	161	3.797627004609	64
19	192	3.797885088995	1064
19	245	4	1064
19	275	4.052781738131	92
19	294	4.097627004609	1064
19	356	4.397627004609	1064
19	417	4.5	1064
19	449	4.697627004609	1064
19	517	4.997627004609	1064
19	571	5	1064
19	653	5.297627004609	1064
19	779	5.5	1064
19	831	5.597627004609	1064
19	933	5.784857525164	92
19	974	5.897627004609	1064
19	1077	6	1064
19	1130	6.197627004609	1064
19	1234	6.497627004609	1064
19	1296	6.5	1064
19	1391	6.797627004609	1064
19	1492	6.861714566616	84
19	1573	7	1064
19	1663	7.097627004609	1064
19	1807	7.397627004609	1064
19	1911	7.5	1064
19	1963	7.682510184147	100
19	2000	7.697627004609	1064
19	2178	7.997627004609	1064
19	2240	8	1064
19	2335	8.297627004609	1064
19	2440	8.5	1064
19	2492	8.597627004609	1064
19	2595	8.757399269169	104
19	2636	8.897627004609	1064
19	2739	9	1064
19	2828	9.197627004609	1064
19	3041	9.497627004609	1064
19	3103	9.5	1064
19	3201	9.797627004609	1064
19	3322	10	1064
19	3388	10.097627004609	1064
19	3522	10.397627004609	1064
19	3703	10.5	1064
19	3770	10.680020019783	104
19	3871	10.697627004609	1064
19	4055	10.997627004609	1064
19	4133	11	1064
19	4303	11.297627004609	1064
19	4439	11.5	1064
19	4507	11.597627004609	1064
19	4685	11.668685351173	124
19	4742	11.897627004609	1064
19	4925	12	1064
19	5094	12.197627004609	1064
19	5224	12.256648255272	128
19	5326	12.497627004609	1064
19	5404	12.5	1064
19	5624	12.797627004609	1064
19	5760	13	1064
19	5831	13.097627004609	1064
19	5967	13.397627004609	1064
19	6147	13.5	1064
19	6269	13.697627004609	1064
19	6417	13.793217871011	112
19	6530	13.997627004609	1064
19	6616	14	1064
19	6861	14.297627004609	1064
19	7014	14.5	1064
19	7101	14.597627004609	1064
19	7348	14.897627004609	1064
19	7522	15	1064
19	7614	15.197627004609	1064
19	7940	15.497627004609	1064
19	8042	15.5	1064
19	8271	15.797627004609	1064
19	8581	15.873809030069	112
19	8652	16	1064
19	8808	16.097627004609	1064
19	9053	16.397627004609	1064
19	9369	16.5	1064
19	9657	16.571079902956	124
19	9740	16.697627004609	1064
19	9922	16.997627004609	1064
19	10024	17	1064
19	10385	17.297627004609	1064
19	10560	17.387113668279	140
19	10695	17.5	1064
19	10851	17.597627004609	1064
19	11157	17.897627004609	1064
19	11403	18	1064
19	11504	18.197627004609	1064
19	11906	18.497627004609	1064
19	12016	18.5	1064
19	12276	18.797627004609	1064
19	12465	19	1064
19	12633	19.097627004609	1064
19	12819	19.227609079702	124
19	13042	19.397627004609	1064
19	13308	19.5	1064
19	13410	19.697627004609	1064
19	13846	19.997627004609	1064
19	13964	20	1064
19	14240	20.297627004609	1064
19	14602	20.5	1064
19	14863	20.597627004609	1064
19	15155	20.842748108925	144
19	15235	20.897627004609	1064
19	15436	21	1064
19	15705	21.197627004609	1064
19	16400	21.497627004609	1064
19	16518	21.5	1064
19	16950	21.797627004609	1064
19	17341	22	1064
19	17609	22.097627004609	1064
19	17980	22.397627004609	1064
19	18260	22.5	1064
19	18456	22.545627206702	132
19	18778	22.697627004609	1064
19	19064	22.997627004609	1064
19	19182	23	1064
19	19457	23.297627004609	1064
19	19825	23.5	1064
19	19935	23.597627004609	1064
19	20392	23.897627004609	1064
19	20603	24	1064
19	20703	24.018529369052	132
19	20940	24.197627004609	1064
19	21251	24.497627004609	1064
19	21369	24.5	1064
19	21722	24.797627004609	1064
19	22081	25	1064
19	22349	25.097627004609	1064
19	22809	25.397627004609	1064
19	23017	25.5	1064
19	23357	25.697627004609	1064
19	23556	25.717009954992	148
19	23825	25.997627004609	1064
19	23943	26	1064
19	24533	26.297627004609	1064
19	24984	26.5	1064
19	25339	26.597627004609	1064
19	25654	26.897627004609	1064
19	25938	27	1064
19	26229	27.197627004609	1064
19	26759	27.469888934888	132
19	26838	27.497627004609	1064
19	26956	27.5	1064
19	27311	27.797627004609	1064
19	27612	28	1064
19	27734	28.097627004609	1064
19	28015	28.397627004609	1064
19	28227	28.5	1064
19	28375	28.697627004609	1064
19	28744	28.937802050634	132
19	28902	28.997627004609	1064
19	29020	29	1064
19	29298	29.297627004609	1064
19	29837	29.5	1064
19	29938	29.597627004609	1064
19	30410	29.897627004609	1064
19	30612	30	1064
19	30817	30.197627004609	1064
19	31110	30.497627004609	1064
19	31228	30.5	1064
19	31582	30.686081009823	148
19	31750	30.797627004609	1064
19	32434	31	1064
19	32701	31.097627004609	1064
19	33161	31.397627004609	1064
19	33445	31.5	1064
19	33681	31.697627004609	1064
19	34074	31.997627004609	1064
28	148	3.524253976924	108
28	187	3.797885088995	64
28	331	4.100636100639	1064
28	393	4.400672113573	1064
28	486	4.700690127615	1064
28	579	5.000609142849	1064
28	710	5.300735159133	1064
28	762	5.397369851118	92
28	898	5.600609176629	1064
28	1041	5.900654195241	1064
28	1197	6.200618214993	1064
28	1306	6.500645235899	1064
28	1458	6.800618258037	1064
28	1550	6.949816244306	112
28	1652	7.079252236414	112
28	1730	7.100708281433	1064
28	1796	7.25715806893	96
28	1875	7.400744305899	1064
28	2067	7.700636330837	1064
28	2129	7.717713606663	120
28	2168	7.801043387473	84
28	2250	8.000654355661	1064
28	2402	8.300636380519	1064
28	2559	8.600735405529	1064
28	2703	8.900726430499	1064
28	2819	9.10822924337	104
28	2895	9.200744455557	1064
28	2958	9.300693953811	112
28	2978	9.309160069316	112
28	3032	9.460912932835	104
28	3113	9.500672480499	1064
28	3278	9.800627505491	1064
28	3475	10.100708534505	1064
28	3609	10.400618558719	1064
28	3691	10.434890833964	104
28	3834	10.682695988599	104
28	3958	10.700663570773	1064
28	4043	10.882634763704	104
28	4147	11.000609574289	1064
28	4291	11.163421277679	104
28	4390	11.300735575167	1064
28	4595	11.600636577381	1064
28	4652	11.646786935222	84
28	4830	11.900681580919	1064
28	4913	11.952060962577	124
28	5030	12.011733145881	124
28	5084	12.131750117747	124
28	5181	12.200735585719	1064
28	5291	12.465795367776	112
28	5418	12.500654591811	1064
28	5561	12.516169927266	128
28	5615	12.750049557431	128
28	5711	12.800654599145	1064
28	5918	13.100681607721	1064
28	6054	13.400627617399	1064
28	6136	13.424318442142	120
28	6252	13.522144168751	120
28	6366	13.700744628201	1064
28	6519	13.807539435647	112
28	6632	14.000636640053	1064
28	6764	14.089181715183	112
28	6828	14.094559860204	112
28	6958	14.300726652847	1064
28	7218	14.600681666599	1064
28	7331	14.749761484647	112
28	7465	14.900663681229	1064
28	7731	15.200681696627	1064
28	7855	15.416326231696	112
28	7922	15.422995158471	112
28	8062	15.500654712895	1064
28	8259	15.710747287477	112
28	8388	15.800735729831	1064
28	8496	15.803788060472	128
28	8536	15.85329553082	116
28	8756	16.017520877947	116
28	8926	16.100618747355	1064
28	9040	16.215124813559	116
28	9170	16.400708765599	1064
28	9291	16.477399187665	84
28	9316	16.479432253722	84
28	9514	16.516127891199	136
28	9580	16.525393469839	136
28	9649	16.553048932656	132
28	9857	16.700726784409	1064
28	10044	17.000654803641	1064
28	10199	17.009496248272	84
28	10305	17.041634760803	84
28	10375	17.194645399167	124
28	10502	17.300708823563	1064
28	10686	17.496525446941	84
28	10841	17.53677611204	132
28	10968	17.600609842547	1064
28	11040	17.695195817579	124
28	11111	17.703651272682	124
28	11274	17.900708849021	1064
28	11392	17.95549853967	124
28	11621	18.200681840623	1064
28	11740	18.279654439264	132
28	11816	18.338358538037	124
28	11890	18.454789573028	124
28	12038	18.500708825939	1064
28	12252	18.629376629875	132
28	12401	18.800672811147	1064
28	12617	19.055156638396	124
28	12758	19.100717797287	1064
28	12912	19.257845294994	124
28	13026	19.303705796038	124
28	13167	19.400627784309	1064
28	13257	19.43199125083	124
28	13535	19.700681772329	1064
28	13654	19.717570130339	124
28	13752	19.90940226373	124
28	13830	19.911956463276	124
28	13986	20.000708761411	1064
28	14211	20.041174276217	124
28	14376	20.300618751559	1064
28	14505	20.389868890732	84
28	14585	20.416798654144	124
28	14722	20.518585925562	124
28	14847	20.582923048983	140
28	14998	20.600627742843	1064
28	15140	20.778198823939	128
28	15370	20.900717735285	1064
28	15610	21.115269224013	128
28	15681	21.16068703698	128
28	15840	21.200663728905	1064
28	15968	21.228728641083	84
28	16006	21.239466422494	84
28	16128	21.392695492349	84
28	16189	21.426002854898	128
28	16304	21.454335890192	84
28	16392	21.494323944476	144
28	16538	21.500690723765	1064
28	16764	21.647877356222	128
28	16842	21.686493520618	84
28	16929	21.69324811742	84
28	17084	21.800663719875	1064
28	17221	21.849480580835	128
28	17316	21.875566918896	128
28	17510	22.059886552782	136
28	17590	22.084516682503	148
28	17742	22.100699717261	1064
28	17835	22.188592429607	84
28	17956	22.219861426846	84
28	18113	22.400744715941	1064
28	18239	22.451847605222	132
28	18428	22.505100510844	132
28	18553	22.549423371118	132
28	18679	22.592532347562	140
28	18759	22.683673785305	88
28	18911	22.700627715919	1064
28	19000	22.710131203986	132
28	19202	23.000645717187	1064
28	19426	23.165758572515	132
28	19592	23.300663719745	1064
28	19721	23.316348758142	132
28	19805	23.486873283463	132
28	20070	23.600645723593	1064
28	20199	23.612015567381	132
28	20292	23.722653454729	140
28	20373	23.874184173426	132
28	20527	23.900726728673	1064
28	20846	24.028884804724	132
28	20921	24.143823742169	132
28	21075	24.200663734987	1064
28	21170	24.304526218345	132
28	21391	24.500708742501	1064
28	21576	24.537002209319	132
28	21711	24.70298212619	132
28	21857	24.800708749781	1064
28	21988	24.918662095797	132
28	22066	24.978449227509	84
28	22244	25.001701767733	84
28	22339	25.072567202361	132
28	22509	25.099365813065	132
28	22563	25.100870888943	1064
28	22705	25.237524974415	132
28	22780	25.272443897915	84
28	22946	25.400645739603	1064
28	23180	25.635987512637	132
28	23259	25.646215664708	132
28	23297	25.669194078722	132
28	23490	25.700627716069	1064
28	23694	25.724804412879	132
28	23816	25.952580802475	148
28	23963	26.000699691507	1064
28	24161	26.071636574943	132
28	24277	26.111796465214	108
28	24351	26.198766410838	132
28	24435	26.224954890818	84
28	24514	26.279420545125	84
28	24666	26.300627668013	1064
28	24753	26.316990727453	84
28	24873	26.415042394043	132
28	24963	26.45370269312	84
28	25154	26.533046990656	84
28	25227	26.568784665103	84
28	25286	26.595339969061	84
28	25476	26.600726644855	1064
28	25594	26.600975317893	84
28	25787	26.900708622063	1064
28	25913	26.979273322266	132
28	26103	27.01374801969	168
28	26180	27.01826828539	132
28	26362	27.200735599749	1064
28	26452	27.306798026613	132
28	26565	27.379325466493	132
28	26657	27.428067150218	132
28	26736	27.45303060217	132
28	26976	27.500654577899	1064
28	27194	27.527301412097	132
28	27243	27.639441591131	132
28	27442	27.800744556519	1064
28	27585	27.85273208016	132
28	27865	28.100735535807	1064
28	27988	28.127316703455	132
28	28146	28.400663515677	1064
28	28506	28.700654496389	1064
28	28641	28.789922956348	132
28	28720	28.841461360391	132
28	28882	28.963408541302	132
28	29038	29.000672477929	1064
28	29260	29.110092164269	132
28	29429	29.300726460403	1064
28	29564	29.360136603451	132
28	29606	29.366632592528	132
28	29716	29.424146951014	132
28	29794	29.482345948538	132
28	30069	29.600645444017	1064
28	30198	29.671906539687	84
28	30251	29.696005235701	132
28	30370	29.709705276299	132
28	30541	29.900672428729	1064
28	30762	30.014966018276	148
28	30948	30.200744414751	1064
28	31091	30.48527093526	132
28	31246	30.500735402283	1064
28	31454	30.502702817313	132
28	31538	30.521280374171	84
28	31730	30.75131750736	84
28	31881	30.800618391409	1064
28	32006	30.823531603481	132
28	32092	30.852860960606	132
28	32168	30.917303083213	84
28	32223	30.950367766454	84
28	32326	30.963890026348	132
28	32373	30.968054862899	148
28	32586	31.043731410649	148
28	32684	31.063908943046	84
28	32842	31.100717382277	1064
28	32994	31.324567639015	132
28	33054	31.350516429209	84
28	33132	31.375793455827	132
28	33290	31.400654375001	1064
28	33410	31.426961835281	132
28	33627	31.677601514827	132
28	33810	31.700645369693	1064
28	33954	31.890228859953	84
28	34054	31.965896766691	132
27	148	3.524253976924	108
27	187	3.797885088995	64
27	231	3.799501173381	14
27	269	4.00150409603	14
27	320	4.099131100639	14
27	331	4.100636100639	1064
27	382	4.399131113573	14
27	393	4.400672113573	1064
27	441	4.501504118196	14
27	475	4.699131127615	14
27	486	4.700690127615	1064
27	557	4.999131142849	14
27	579	5.000609142849	1064
27	639	5.002297286359	14
27	693	5.299131159133	14
27	710	5.300735159133	1064
27	762	5.397369851118	92
27	824	5.50150417202	14
27	878	5.599131176629	14
27	898	5.600609176629	1064
27	1021	5.899131195241	14
27	1041	5.900654195241	1064
27	1122	6.001504203678	14
27	1177	6.199131214993	14
27	1197	6.200618214993	1064
27	1281	6.499131235899	14
27	1306	6.500645235899	1064
27	1377	6.502333474437	14
27	1438	6.799131258037	14
27	1458	6.800618258037	1064
27	1550	6.949816244306	112
27	1618	7.001504276824	14
27	1652	7.079252236414	112
27	1710	7.099131281433	14
27	1730	7.100708281433	1064
27	1796	7.25715806893	96
27	1854	7.399131305899	14
27	1875	7.400744305899	1064
27	1956	7.501504317926	14
27	2047	7.699131330837	14
27	2067	7.700636330837	1064
27	2129	7.717713606663	120
27	2168	7.801043387473	84
27	2225	7.999131355661	14
27	2250	8.000654355661	1064
27	2321	8.002261714987	14
27	2382	8.299131380519	14
27	2402	8.300636380519	1064
27	2485	8.50150440092	14
27	2539	8.599131405529	14
27	2559	8.600735405529	1064
27	2683	8.899131430499	14
27	2703	8.900726430499	1064
27	2784	9.001504442588	14
27	2819	9.10822924337	104
27	2875	9.199131455557	14
27	2895	9.200744455557	1064
27	2958	9.300693953811	112
27	2978	9.309160069316	112
27	3032	9.460912932835	104
27	3088	9.499131480499	14
27	3113	9.500672480499	1064
27	3184	9.502288964735	14
27	3255	9.799131505491	14
27	3278	9.800627505491	1064
27	3381	10.001504529896	14
27	3449	10.099131534505	14
27	3475	10.100708534505	1064
27	3583	10.399131558719	14
27	3609	10.400618558719	1064
27	3691	10.434890833964	104
27	3762	10.501504563598	14
27	3834	10.682695988599	104
27	3932	10.699131570773	14
27	3958	10.700663570773	1064
27	4043	10.882634763704	104
27	4116	10.999131574289	14
27	4147	11.000609574289	1064
27	4240	11.002208144093	14
27	4291	11.163421277679	104
27	4364	11.299131575167	14
27	4390	11.300735575167	1064
27	4498	11.501504572772	14
27	4568	11.599131577381	14
27	4595	11.600636577381	1064
27	4652	11.646786935222	84
27	4803	11.899131580919	14
27	4830	11.900681580919	1064
27	4913	11.952060962577	124
27	4984	12.00150457937	14
27	5030	12.011733145881	124
27	5084	12.131750117747	124
27	5155	12.199131585719	14
27	5181	12.200735585719	1064
27	5291	12.465795367776	112
27	5387	12.499131591811	14
27	5418	12.500654591811	1064
27	5511	12.502280181305	14
27	5561	12.516169927266	128
27	5615	12.750049557431	128
27	5685	12.799131599145	14
27	5711	12.800654599145	1064
27	5819	13.001504603112	14
27	5892	13.099131607721	14
27	5918	13.100681607721	1064
27	6028	13.399131617399	14
27	6054	13.400627617399	1064
27	6136	13.424318442142	120
27	6206	13.50150461987	14
27	6252	13.522144168751	120
27	6337	13.699131628201	14
27	6366	13.700744628201	1064
27	6519	13.807539435647	112
27	6598	13.999131640053	14
27	6632	14.000636640053	1064
27	6736	14.002370279633	14
27	6764	14.089181715183	112
27	6828	14.094559860204	112
27	6929	14.299131652847	14
27	6958	14.300726652847	1064
27	7094	14.50150466199	14
27	7183	14.599131666599	14
27	7218	14.600681666599	1064
27	7331	14.749761484647	112
27	7430	14.899131681229	14
27	7465	14.900663681229	1064
27	7602	15.001504686794	14
27	7696	15.199131696627	14
27	7731	15.200681696627	1064
27	7855	15.416326231696	112
27	7922	15.422995158471	112
27	8022	15.499131712895	14
27	8062	15.500654712895	1064
27	8188	15.502280426749	14
27	8259	15.710747287477	112
27	8353	15.799131729831	14
27	8388	15.800735729831	1064
27	8496	15.803788060472	128
27	8536	15.85329553082	116
27	8732	16.001504742746	14
27	8756	16.017520877947	116
27	8891	16.099131747355	14
27	8926	16.100618747355	1064
27	9040	16.215124813559	116
27	9135	16.399131765599	14
27	9170	16.400708765599	1064
27	9291	16.477399187665	84
27	9316	16.479432253722	84
27	9449	16.501504773468	14
27	9514	16.516127891199	136
27	9580	16.525393469839	136
27	9649	16.553048932656	132
27	9822	16.699131784409	14
27	9857	16.700726784409	1064
27	10004	16.999131803641	14
27	10044	17.000654803641	1064
27	10170	17.002361609221	14
27	10199	17.009496248272	84
27	10305	17.041634760803	84
27	10375	17.194645399167	124
27	10467	17.299131823563	14
27	10502	17.300708823563	1064
27	10686	17.496525446941	84
27	10775	17.501504837938	14
27	10841	17.53677611204	132
27	10933	17.599131842547	14
27	10968	17.600609842547	1064
27	11040	17.695195817579	124
27	11111	17.703651272682	124
27	11239	17.899131849021	14
27	11274	17.900708849021	1064
27	11392	17.95549853967	124
27	11483	18.001504840954	14
27	11586	18.199131840623	14
27	11621	18.200681840623	1064
27	11740	18.279654439264	132
27	11816	18.338358538037	124
27	11890	18.454789573028	124
27	11995	18.499131825939	14
27	12038	18.500708825939	1064
27	12175	18.502406642239	14
27	12252	18.629376629875	132
27	12363	18.799131811147	14
27	12401	18.800672811147	1064
27	12550	19.001504792678	14
27	12617	19.055156638396	124
27	12720	19.099131797287	14
27	12758	19.100717797287	1064
27	12912	19.257845294994	124
27	13026	19.303705796038	124
27	13129	19.399131784309	14
27	13167	19.400627784309	1064
27	13257	19.43199125083	124
27	13393	19.5015047716	14
27	13497	19.699131772329	14
27	13535	19.700681772329	1064
27	13654	19.717570130339	124
27	13752	19.90940226373	124
27	13830	19.911956463276	124
27	13940	19.999131761411	14
27	13986	20.000708761411	1064
27	14134	20.002370514805	14
27	14211	20.041174276217	124
27	14334	20.299131751559	14
27	14376	20.300618751559	1064
27	14505	20.389868890732	84
27	14585	20.416798654144	124
27	14694	20.501504738234	14
27	14722	20.518585925562	124
27	14847	20.582923048983	140
27	14957	20.599131742843	14
27	14998	20.600627742843	1064
27	15140	20.778198823939	128
27	15329	20.899131735285	14
27	15370	20.900717735285	1064
27	15528	21.001504726282	14
27	15610	21.115269224013	128
27	15681	21.16068703698	128
27	15799	21.199131728905	14
27	15840	21.200663728905	1064
27	15968	21.228728641083	84
27	16006	21.239466422494	84
27	16128	21.392695492349	84
27	16189	21.426002854898	128
27	16304	21.454335890192	84
27	16392	21.494323944476	144
27	16492	21.499131723765	14
27	16538	21.500690723765	1064
27	16686	21.502298441481	14
27	16764	21.647877356222	128
27	16842	21.686493520618	84
27	16929	21.69324811742	84
27	17043	21.799131719875	14
27	17084	21.800663719875	1064
27	17221	21.849480580835	128
27	17316	21.875566918896	128
27	17431	22.001504712652	14
27	17510	22.059886552782	136
27	17590	22.084516682503	148
27	17701	22.099131717261	14
27	17742	22.100699717261	1064
27	17835	22.188592429607	84
27	17956	22.219861426846	84
27	18072	22.399131715941	14
27	18113	22.400744715941	1064
27	18239	22.451847605222	132
27	18350	22.501504711174	14
27	18428	22.505100510844	132
27	18553	22.549423371118	132
27	18679	22.592532347562	140
27	18759	22.683673785305	88
27	18870	22.699131715919	14
27	18911	22.700627715919	1064
27	19000	22.710131203986	132
27	19156	22.999131717187	14
27	19202	23.000645717187	1064
27	19350	23.002253430477	14
27	19426	23.165758572515	132
27	19551	23.299131719745	14
27	19592	23.300663719745	1064
27	19721	23.316348758142	132
27	19805	23.486873283463	132
27	19917	23.501504718984	14
27	20029	23.599131723593	14
27	20070	23.600645723593	1064
27	20199	23.612015567381	132
27	20292	23.722653454729	140
27	20373	23.874184173426	132
27	20486	23.899131728673	14
27	20527	23.900726728673	1064
27	20695	24.001504728138	14
27	20846	24.028884804724	132
27	20921	24.143823742169	132
27	21034	24.199131734987	14
27	21075	24.200663734987	1064
27	21170	24.304526218345	132
27	21345	24.499131742501	14
27	21391	24.500708742501	1064
27	21539	24.502433483167	14
27	21576	24.537002209319	132
27	21711	24.70298212619	132
27	21816	24.799131749781	14
27	21857	24.800708749781	1064
27	21988	24.918662095797	132
27	22066	24.978449227509	84
27	22179	25.001504747032	14
27	22244	25.001701767733	84
27	22339	25.072567202361	132
27	22449	25.099131751641	14
27	22509	25.099365813065	132
27	22563	25.100870888943	1064
27	22705	25.237524974415	132
27	22780	25.272443897915	84
27	22905	25.399131739603	14
27	22946	25.400645739603	1064
27	23107	25.501504720148	14
27	23180	25.635987512637	132
27	23259	25.646215664708	132
27	23297	25.669194078722	132
27	23449	25.699131716069	14
27	23490	25.700627716069	1064
27	23694	25.724804412879	132
27	23816	25.952580802475	148
27	23917	25.999131691507	14
27	23963	26.000699691507	1064
27	24111	26.002415370539	14
27	24161	26.071636574943	132
27	24277	26.111796465214	108
27	24351	26.198766410838	132
27	24435	26.224954890818	84
27	24514	26.279420545125	84
27	24625	26.299131668013	14
27	24666	26.300627668013	1064
27	24753	26.316990727453	84
27	24873	26.415042394043	132
27	24963	26.45370269312	84
27	25074	26.501504640246	14
27	25154	26.533046990656	84
27	25227	26.568784665103	84
27	25286	26.595339969061	84
27	25431	26.599131644855	14
27	25476	26.600726644855	1064
27	25594	26.600975317893	84
27	25746	26.899131622063	14
27	25787	26.900708622063	1064
27	25913	26.979273322266	132
27	26028	27.001504602502	14
27	26103	27.01374801969	168
27	26180	27.01826828539	132
27	26321	27.199131599749	14
27	26362	27.200735599749	1064
27	26452	27.306798026613	132
27	26565	27.379325466493	132
27	26657	27.428067150218	132
27	26736	27.45303060217	132
27	26930	27.499131577899	14
27	26976	27.500654577899	1064
27	27124	27.502298144039	14
27	27194	27.527301412097	132
27	27243	27.639441591131	132
27	27401	27.799131556519	14
27	27442	27.800744556519	1064
27	27585	27.85273208016	132
27	27700	28.001504531198	14
27	27824	28.099131535807	14
27	27865	28.100735535807	1064
27	27988	28.127316703455	132
27	28105	28.399131515677	14
27	28146	28.400663515677	1064
27	28315	28.501504498086	14
27	28465	28.699131496389	14
27	28506	28.700654496389	1064
27	28641	28.789922956348	132
27	28720	28.841461360391	132
27	28882	28.963408541302	132
27	28992	28.999131477929	14
27	29038	29.000672477929	1064
27	29186	29.002315945277	14
27	29260	29.110092164269	132
27	29388	29.299131460403	14
27	29429	29.300726460403	1064
27	29564	29.360136603451	132
27	29606	29.366632592528	132
27	29716	29.424146951014	132
27	29794	29.482345948538	132
27	29925	29.501504439408	14
27	30028	29.599131444017	14
27	30069	29.600645444017	1064
27	30198	29.671906539687	84
27	30251	29.696005235701	132
27	30370	29.709705276299	132
27	30500	29.899131428729	14
27	30541	29.900672428729	1064
27	30700	30.001504414624	14
27	30762	30.014966018276	148
27	30907	30.199131414751	14
27	30948	30.200744414751	1064
27	31091	30.48527093526	132
27	31199	30.499131402283	14
27	31246	30.500735402283	1064
27	31397	30.502432796125	14
27	31454	30.502702817313	132
27	31538	30.521280374171	84
27	31730	30.75131750736	84
27	31839	30.799131391409	14
27	31881	30.800618391409	1064
27	32006	30.823531603481	132
27	32092	30.852860960606	132
27	32168	30.917303083213	84
27	32223	30.950367766454	84
27	32326	30.963890026348	132
27	32373	30.968054862899	148
27	32521	31.001504377668	14
27	32586	31.043731410649	148
27	32684	31.063908943046	84
27	32790	31.099131382277	14
27	32842	31.100717382277	1064
27	32994	31.324567639015	132
27	33054	31.350516429209	84
27	33132	31.375793455827	132
27	33248	31.399131375001	14
27	33290	31.400654375001	1064
27	33410	31.426961835281	132
27	33529	31.501504366638	14
27	33627	31.677601514827	132
27	33767	31.699131369693	14
27	33810	31.700645369693	1064
27	33954	31.890228859953	84
27	34054	31.965896766691	132
27	34160	31.999131366495	14
20	80	2.339988585701	100
20	164	3.797627004609	64
20	193	3.797901088995	14
20	205	3.797997088995	1064
20	248	4	1064
20	278	4.052781738131	92
20	297	4.097627004609	1064
20	336	4.100652100639	14
20	359	4.397627004609	1064
20	398	4.400688113573	14
20	420	4.5	1064
20	452	4.697627004609	1064
20	491	4.700706127615	14
20	520	4.997627004609	1064
20	584	5.000625142849	14
20	604	5.000793142849	1064
20	656	5.297627004609	1064
20	715	5.300751159133	14
20	782	5.5	1064
20	834	5.597627004609	1064
20	903	5.600625176629	14
20	936	5.784857525164	92
20	977	5.897627004609	1064
20	1046	5.900670195241	14
20	1080	6	1064
20	1133	6.197627004609	1064
20	1202	6.200634214993	14
20	1237	6.497627004609	1064
20	1311	6.500661235899	14
20	1335	6.500829235899	1064
20	1394	6.797627004609	1064
20	1463	6.800634258037	14
20	1495	6.861714566616	84
20	1576	7	1064
20	1666	7.097627004609	1064
20	1735	7.100724281433	14
20	1810	7.397627004609	1064
20	1880	7.400760305899	14
20	1914	7.5	1064
20	1966	7.682510184147	100
20	2003	7.697627004609	1064
20	2072	7.700652330837	14
20	2181	7.997627004609	1064
20	2255	8.000670355661	14
20	2279	8.000757355661	1064
20	2338	8.297627004609	1064
20	2407	8.300652380519	14
20	2443	8.5	1064
20	2495	8.597627004609	1064
20	2564	8.600751405529	14
20	2598	8.757399269169	104
20	2639	8.897627004609	1064
20	2708	8.900742430499	14
20	2742	9	1064
20	2831	9.197627004609	1064
20	2900	9.200760455557	14
20	3044	9.497627004609	1064
20	3118	9.500688480499	14
20	3142	9.500784480499	1064
20	3204	9.797627004609	1064
20	3283	9.800643505491	14
20	3325	10	1064
20	3391	10.097627004609	1064
20	3480	10.100724534505	14
20	3525	10.397627004609	1064
20	3614	10.400634558719	14
20	3706	10.5	1064
20	3773	10.680020019783	104
20	3874	10.697627004609	1064
20	3963	10.700679570773	14
20	4058	10.997627004609	1064
20	4152	11.000625574289	14
20	4184	11.000703574289	1064
20	4306	11.297627004609	1064
20	4395	11.300751575167	14
20	4442	11.5	1064
20	4510	11.597627004609	1064
20	4600	11.600652577381	14
20	4688	11.668685351173	124
20	4745	11.897627004609	1064
20	4835	11.900697580919	14
20	4928	12	1064
20	5097	12.197627004609	1064
20	5186	12.200751585719	14
20	5227	12.256648255272	128
20	5329	12.497627004609	1064
20	5423	12.500670591811	14
20	5455	12.500775591811	1064
20	5627	12.797627004609	1064
20	5716	12.800670599145	14
20	5763	13	1064
20	5834	13.097627004609	1064
20	5923	13.100697607721	14
20	5970	13.397627004609	1064
20	6059	13.400643617399	14
20	6150	13.5	1064
20	6272	13.697627004609	1064
20	6371	13.700760628201	14
20	6420	13.793217871011	112
20	6533	13.997627004609	1064
20	6637	14.000652640053	14
20	6673	14.000865640053	1064
20	6864	14.297627004609	1064
20	6963	14.300742652847	14
20	7017	14.5	1064
20	7104	14.597627004609	1064
20	7223	14.600697666599	14
20	7351	14.897627004609	1064
20	7470	14.900679681229	14
20	7525	15	1064
20	7617	15.197627004609	1064
20	7736	15.200697696627	14
20	7943	15.497627004609	1064
20	8067	15.500670712895	14
20	8111	15.500775712895	1064
20	8274	15.797627004609	1064
20	8393	15.800751729831	14
20	8584	15.873809030069	112
20	8655	16	1064
20	8811	16.097627004609	1064
20	8931	16.100634747355	14
20	9056	16.397627004609	1064
20	9175	16.400724765599	14
20	9372	16.5	1064
20	9660	16.571079902956	124
20	9743	16.697627004609	1064
20	9862	16.700742784409	14
20	9925	16.997627004609	1064
20	10049	17.000670803641	14
20	10093	17.000856803641	1064
20	10388	17.297627004609	1064
20	10507	17.300724823563	14
20	10563	17.387113668279	140
20	10698	17.5	1064
20	10854	17.597627004609	1064
20	10973	17.600625842547	14
20	11160	17.897627004609	1064
20	11279	17.900724849021	14
20	11406	18	1064
20	11507	18.197627004609	1064
20	11626	18.200697840623	14
20	11909	18.497627004609	1064
20	12043	18.500724825939	14
20	12091	18.500901825939	1064
20	12279	18.797627004609	1064
20	12408	18.800688811147	14
20	12468	19	1064
20	12636	19.097627004609	1064
20	12765	19.100733797287	14
20	12822	19.227609079702	124
20	13045	19.397627004609	1064
20	13174	19.400643784309	14
20	13311	19.5	1064
20	13413	19.697627004609	1064
20	13542	19.700697772329	14
20	13849	19.997627004609	1064
20	13993	20.000724761411	14
20	14045	20.000865761411	1064
20	14243	20.297627004609	1064
20	14383	20.300634751559	14
20	14605	20.5	1064
20	14866	20.597627004609	1064
20	15005	20.600643742843	14
20	15158	20.842748108925	144
20	15238	20.897627004609	1064
20	15377	20.900733735285	14
20	15439	21	1064
20	15708	21.197627004609	1064
20	15847	21.200679728905	14
20	16403	21.497627004609	1064
20	16547	21.500706723765	14
20	16599	21.500793723765	1064
20	16953	21.797627004609	1064
20	17093	21.800679719875	14
20	17344	22	1064
20	17612	22.097627004609	1064
20	17751	22.100715717261	14
20	17983	22.397627004609	1064
20	18122	22.400760715941	14
20	18263	22.5	1064
20	18459	22.545627206702	132
20	18781	22.697627004609	1064
20	18920	22.700643715919	14
20	19067	22.997627004609	1064
20	19211	23.000661717187	14
20	19263	23.000748717187	1064
20	19460	23.297627004609	1064
20	19599	23.300679719745	14
20	19828	23.5	1064
20	19938	23.597627004609	1064
20	20077	23.600661723593	14
20	20395	23.897627004609	1064
20	20534	23.900742728673	14
20	20606	24	1064
20	20706	24.018529369052	132
20	20943	24.197627004609	1064
20	21082	24.200679734987	14
20	21254	24.497627004609	1064
20	21398	24.500724742501	14
20	21450	24.500928742501	1064
20	21725	24.797627004609	1064
20	21864	24.800724749781	14
20	22084	25	1064
20	22352	25.097627004609	1064
20	22568	25.100886888943	14
20	22812	25.397627004609	1064
20	22951	25.400661739603	14
20	23020	25.5	1064
20	23360	25.697627004609	1064
20	23499	25.700643716069	14
20	23559	25.717009954992	148
20	23828	25.997627004609	1064
20	23972	26.000715691507	14
20	24024	26.000910691507	1064
20	24536	26.297627004609	1064
20	24675	26.300643668013	14
20	24987	26.5	1064
20	25342	26.597627004609	1064
20	25485	26.600742644855	14
20	25657	26.897627004609	1064
20	25796	26.900724622063	14
20	25941	27	1064
20	26232	27.197627004609	1064
20	26371	27.200751599749	14
20	26762	27.469888934888	132
20	26841	27.497627004609	1064
20	26985	27.500670577899	14
20	27037	27.500793577899	1064
20	27314	27.797627004609	1064
20	27453	27.800760556519	14
20	27615	28	1064
20	27737	28.097627004609	1064
20	27876	28.100751535807	14
20	28018	28.397627004609	1064
20	28157	28.400679515677	14
20	28230	28.5	1064
20	28378	28.697627004609	1064
20	28517	28.700670496389	14
20	28747	28.937802050634	132
20	28905	28.997627004609	1064
20	29049	29.000688477929	14
20	29101	29.000811477929	1064
20	29301	29.297627004609	1064
20	29440	29.300742460403	14
20	29840	29.5	1064
20	29941	29.597627004609	1064
20	30080	29.600661444017	14
20	30413	29.897627004609	1064
20	30552	29.900688428729	14
20	30615	30	1064
20	30820	30.197627004609	1064
20	30959	30.200760414751	14
20	31113	30.497627004609	1064
20	31257	30.500751402283	14
20	31309	30.500928402283	1064
20	31585	30.686081009823	148
20	31753	30.797627004609	1064
20	31892	30.800634391409	14
20	32437	31	1064
20	32704	31.097627004609	1064
20	32853	31.100733382277	14
20	33164	31.397627004609	1064
20	33303	31.400670375001	14
20	33448	31.5	1064
20	33684	31.697627004609	1064
20	33823	31.700661369693	14
20	34077	31.997627004609	1064
3	2	0.1	0
3	2	0.1	0
3	77	2.339988585701	0
3	77	2.339988585701	2
3	78	2.339988585701	2
3	78	2.339988585701	0
3	81	2.339988585701	0
3	81	2.339988585701	0
3	85	2.340148585701	0
3	85	2.340148585701	0
3	144	3.524085976924	0
3	144	3.524085976924	0
3	147	3.524253976924	0
3	147	3.524253976924	0
3	161	3.797627004609	0
3	161	3.797627004609	2
3	162	3.797627004609	2
3	162	3.797627004609	0
3	165	3.797627004609	0
3	165	3.797627004609	0
3	169	3.797739004609	0
3	169	3.797739004609	0
3	183	3.797773088995	0
3	183	3.797773088995	0
3	186	3.797885088995	0
3	186	3.797885088995	0
3	192	3.797885088995	0
3	192	3.797885088995	2
3	194	3.797901088995	2
3	194	3.797901088995	1
3	200	3.797945088995	1
3	200	3.797945088995	2
3	203	3.797997088995	2
3	203	3.797997088995	0
3	206	3.797997088995	0
3	206	3.797997088995	0
3	230	3.799501173381	0
3	230	3.799501173381	0
3	245	4	0
3	245	4	2
3	246	4	2
3	246	4	0
3	249	4	0
3	249	4	0
3	268	4.00150409603	0
3	268	4.00150409603	0
3	275	4.052781738131	0
3	275	4.052781738131	2
3	276	4.052781738131	2
3	276	4.052781738131	0
3	279	4.052781738131	0
3	279	4.052781738131	0
3	283	4.052929738131	0
3	283	4.052929738131	0
3	294	4.097627004609	0
3	294	4.097627004609	2
3	295	4.097627004609	2
3	295	4.097627004609	0
3	298	4.097627004609	0
3	298	4.097627004609	0
3	319	4.099131100639	0
3	319	4.099131100639	0
3	326	4.099192100639	0
3	326	4.099192100639	0
3	330	4.100636100639	0
3	330	4.100636100639	0
3	337	4.100652100639	0
3	337	4.100652100639	0
3	343	4.100696100639	0
3	343	4.100696100639	0
3	356	4.397627004609	0
3	356	4.397627004609	2
3	357	4.397627004609	2
3	357	4.397627004609	0
3	360	4.397627004609	0
3	360	4.397627004609	0
3	381	4.399131113573	0
3	381	4.399131113573	0
3	388	4.399228113573	0
3	388	4.399228113573	0
3	392	4.400672113573	0
3	392	4.400672113573	0
3	399	4.400688113573	0
3	399	4.400688113573	0
3	405	4.400732113573	0
3	405	4.400732113573	0
3	417	4.5	0
3	417	4.5	2
3	418	4.5	2
3	418	4.5	0
3	421	4.5	0
3	421	4.5	0
3	440	4.501504118196	0
3	440	4.501504118196	0
3	449	4.697627004609	0
3	449	4.697627004609	2
3	450	4.697627004609	2
3	450	4.697627004609	0
3	453	4.697627004609	0
3	453	4.697627004609	0
3	474	4.699131127615	0
3	474	4.699131127615	0
3	481	4.699246127615	0
3	481	4.699246127615	0
3	485	4.700690127615	0
3	485	4.700690127615	0
3	492	4.700706127615	0
3	492	4.700706127615	0
3	498	4.700750127615	0
3	498	4.700750127615	0
3	517	4.997627004609	0
3	517	4.997627004609	2
3	518	4.997627004609	2
3	518	4.997627004609	0
3	521	4.997627004609	0
3	521	4.997627004609	0
3	556	4.999131142849	0
3	556	4.999131142849	0
3	565	4.999165142849	0
3	565	4.999165142849	0
3	571	5	0
3	571	5	1
3	578	5.000609142849	1
3	578	5.000609142849	2
3	585	5.000625142849	2
3	585	5.000625142849	1
3	595	5.000669142849	1
3	595	5.000669142849	2
3	602	5.000793142849	2
3	602	5.000793142849	0
3	605	5.000793142849	0
3	605	5.000793142849	0
3	638	5.002297286359	0
3	638	5.002297286359	0
3	653	5.297627004609	0
3	653	5.297627004609	2
3	654	5.297627004609	2
3	654	5.297627004609	0
3	657	5.297627004609	0
3	657	5.297627004609	0
3	692	5.299131159133	0
3	692	5.299131159133	0
3	701	5.299291159133	0
3	701	5.299291159133	0
3	709	5.300735159133	0
3	709	5.300735159133	0
3	716	5.300751159133	0
3	716	5.300751159133	0
3	726	5.300795159133	0
3	726	5.300795159133	0
3	748	5.397221851118	0
3	748	5.397221851118	0
3	761	5.397369851118	0
3	761	5.397369851118	0
3	779	5.5	0
3	779	5.5	2
3	780	5.5	2
3	780	5.5	0
3	783	5.5	0
3	783	5.5	0
3	823	5.50150417202	0
3	823	5.50150417202	0
3	831	5.597627004609	0
3	831	5.597627004609	2
3	832	5.597627004609	2
3	832	5.597627004609	0
3	835	5.597627004609	0
3	835	5.597627004609	0
3	877	5.599131176629	0
3	877	5.599131176629	0
3	887	5.599165176629	0
3	887	5.599165176629	0
3	897	5.600609176629	0
3	897	5.600609176629	0
3	904	5.600625176629	0
3	904	5.600625176629	0
3	916	5.600669176629	0
3	916	5.600669176629	0
3	933	5.784857525164	0
3	933	5.784857525164	2
3	934	5.784857525164	2
3	934	5.784857525164	0
3	937	5.784857525164	0
3	937	5.784857525164	0
3	944	5.785005525164	0
3	944	5.785005525164	0
3	974	5.897627004609	0
3	974	5.897627004609	2
3	975	5.897627004609	2
3	975	5.897627004609	0
3	978	5.897627004609	0
3	978	5.897627004609	0
3	1020	5.899131195241	0
3	1020	5.899131195241	0
3	1030	5.899210195241	0
3	1030	5.899210195241	0
3	1040	5.900654195241	0
3	1040	5.900654195241	0
3	1047	5.900670195241	0
3	1047	5.900670195241	0
3	1059	5.900714195241	0
3	1059	5.900714195241	0
3	1077	6	0
3	1077	6	2
3	1078	6	2
3	1078	6	0
3	1081	6	0
3	1081	6	0
3	1121	6.001504203678	0
3	1121	6.001504203678	0
3	1130	6.197627004609	0
3	1130	6.197627004609	2
3	1131	6.197627004609	2
3	1131	6.197627004609	0
3	1134	6.197627004609	0
3	1134	6.197627004609	0
3	1176	6.199131214993	0
3	1176	6.199131214993	0
3	1186	6.199174214993	0
3	1186	6.199174214993	0
3	1196	6.200618214993	0
3	1196	6.200618214993	0
3	1203	6.200634214993	0
3	1203	6.200634214993	0
3	1215	6.200678214993	0
3	1215	6.200678214993	0
3	1234	6.497627004609	0
3	1234	6.497627004609	2
3	1235	6.497627004609	2
3	1235	6.497627004609	0
3	1238	6.497627004609	0
3	1238	6.497627004609	0
3	1280	6.499131235899	0
3	1280	6.499131235899	0
3	1290	6.499201235899	0
3	1290	6.499201235899	0
3	1296	6.5	0
3	1296	6.5	1
3	1305	6.500645235899	1
3	1305	6.500645235899	2
3	1312	6.500661235899	2
3	1312	6.500661235899	1
3	1324	6.500705235899	1
3	1324	6.500705235899	2
3	1333	6.500829235899	2
3	1333	6.500829235899	0
3	1336	6.500829235899	0
3	1336	6.500829235899	0
3	1376	6.502333474437	0
3	1376	6.502333474437	0
3	1391	6.797627004609	0
3	1391	6.797627004609	2
3	1392	6.797627004609	2
3	1392	6.797627004609	0
3	1395	6.797627004609	0
3	1395	6.797627004609	0
3	1437	6.799131258037	0
3	1437	6.799131258037	0
3	1447	6.799174258037	0
3	1447	6.799174258037	0
3	1457	6.800618258037	0
3	1457	6.800618258037	0
3	1464	6.800634258037	0
3	1464	6.800634258037	0
3	1476	6.800678258037	0
3	1476	6.800678258037	0
3	1492	6.861714566616	0
3	1492	6.861714566616	2
3	1493	6.861714566616	2
3	1493	6.861714566616	0
3	1496	6.861714566616	0
3	1496	6.861714566616	0
3	1503	6.861850566616	0
3	1503	6.861850566616	0
3	1539	6.949640244306	0
3	1539	6.949640244306	0
3	1549	6.949816244306	0
3	1549	6.949816244306	0
3	1573	7	0
3	1573	7	2
3	1574	7	2
3	1574	7	0
3	1577	7	0
3	1577	7	0
3	1617	7.001504276824	0
3	1617	7.001504276824	0
3	1633	7.079076236414	0
3	1633	7.079076236414	0
3	1651	7.079252236414	0
3	1651	7.079252236414	0
3	1663	7.097627004609	0
3	1663	7.097627004609	2
3	1664	7.097627004609	2
3	1664	7.097627004609	0
3	1667	7.097627004609	0
3	1667	7.097627004609	0
3	1709	7.099131281433	0
3	1709	7.099131281433	0
3	1719	7.099264281433	0
3	1719	7.099264281433	0
3	1729	7.100708281433	0
3	1729	7.100708281433	0
3	1736	7.100724281433	0
3	1736	7.100724281433	0
3	1748	7.100768281433	0
3	1748	7.100768281433	0
3	1777	7.25700606893	0
3	1777	7.25700606893	0
3	1795	7.25715806893	0
3	1795	7.25715806893	0
3	1807	7.397627004609	0
3	1807	7.397627004609	2
3	1808	7.397627004609	2
3	1808	7.397627004609	0
3	1811	7.397627004609	0
3	1811	7.397627004609	0
3	1853	7.399131305899	0
3	1853	7.399131305899	0
3	1863	7.399300305899	0
3	1863	7.399300305899	0
3	1874	7.400744305899	0
3	1874	7.400744305899	0
3	1881	7.400760305899	0
3	1881	7.400760305899	0
3	1893	7.400804305899	0
3	1893	7.400804305899	0
3	1911	7.5	0
3	1911	7.5	2
3	1912	7.5	2
3	1912	7.5	0
3	1915	7.5	0
3	1915	7.5	0
3	1955	7.501504317926	0
3	1955	7.501504317926	0
3	1963	7.682510184147	0
3	1963	7.682510184147	2
3	1964	7.682510184147	2
3	1964	7.682510184147	0
3	1967	7.682510184147	0
3	1967	7.682510184147	0
3	1974	7.682670184147	0
3	1974	7.682670184147	0
3	2000	7.697627004609	0
3	2000	7.697627004609	2
3	2001	7.697627004609	2
3	2001	7.697627004609	0
3	2004	7.697627004609	0
3	2004	7.697627004609	0
3	2046	7.699131330837	0
3	2046	7.699131330837	0
3	2056	7.699192330837	0
3	2056	7.699192330837	0
3	2066	7.700636330837	0
3	2066	7.700636330837	0
3	2073	7.700652330837	0
3	2073	7.700652330837	0
3	2085	7.700696330837	0
3	2085	7.700696330837	0
3	2110	7.717529606663	0
3	2110	7.717529606663	0
3	2128	7.717713606663	0
3	2128	7.717713606663	0
3	2149	7.800907387473	0
3	2149	7.800907387473	0
3	2167	7.801043387473	0
3	2167	7.801043387473	0
3	2178	7.997627004609	0
3	2178	7.997627004609	2
3	2179	7.997627004609	2
3	2179	7.997627004609	0
3	2182	7.997627004609	0
3	2182	7.997627004609	0
3	2224	7.999131355661	0
3	2224	7.999131355661	0
3	2234	7.999210355661	0
3	2234	7.999210355661	0
3	2240	8	0
3	2240	8	1
3	2249	8.000654355661	1
3	2249	8.000654355661	2
3	2256	8.000670355661	2
3	2256	8.000670355661	1
3	2268	8.000714355661	1
3	2268	8.000714355661	2
3	2277	8.000757355661	2
3	2277	8.000757355661	0
3	2280	8.000757355661	0
3	2280	8.000757355661	0
3	2320	8.002261714987	0
3	2320	8.002261714987	0
3	2335	8.297627004609	0
3	2335	8.297627004609	2
3	2336	8.297627004609	2
3	2336	8.297627004609	0
3	2339	8.297627004609	0
3	2339	8.297627004609	0
3	2381	8.299131380519	0
3	2381	8.299131380519	0
3	2391	8.299192380519	0
3	2391	8.299192380519	0
3	2401	8.300636380519	0
3	2401	8.300636380519	0
3	2408	8.300652380519	0
3	2408	8.300652380519	0
3	2420	8.300696380519	0
3	2420	8.300696380519	0
3	2440	8.5	0
3	2440	8.5	2
3	2441	8.5	2
3	2441	8.5	0
3	2444	8.5	0
3	2444	8.5	0
3	2484	8.50150440092	0
3	2484	8.50150440092	0
3	2492	8.597627004609	0
3	2492	8.597627004609	2
3	2493	8.597627004609	2
3	2493	8.597627004609	0
3	2496	8.597627004609	0
3	2496	8.597627004609	0
3	2538	8.599131405529	0
3	2538	8.599131405529	0
3	2548	8.599291405529	0
3	2548	8.599291405529	0
3	2558	8.600735405529	0
3	2558	8.600735405529	0
3	2565	8.600751405529	0
3	2565	8.600751405529	0
3	2577	8.600795405529	0
3	2577	8.600795405529	0
3	2595	8.757399269169	0
3	2595	8.757399269169	2
3	2596	8.757399269169	2
3	2596	8.757399269169	0
3	2599	8.757399269169	0
3	2599	8.757399269169	0
3	2606	8.757563269169	0
3	2606	8.757563269169	0
3	2636	8.897627004609	0
3	2636	8.897627004609	2
3	2637	8.897627004609	2
3	2637	8.897627004609	0
3	2640	8.897627004609	0
3	2640	8.897627004609	0
3	2682	8.899131430499	0
3	2682	8.899131430499	0
3	2692	8.899282430499	0
3	2692	8.899282430499	0
3	2702	8.900726430499	0
3	2702	8.900726430499	0
3	2709	8.900742430499	0
3	2709	8.900742430499	0
3	2721	8.900786430499	0
3	2721	8.900786430499	0
3	2739	9	0
3	2739	9	2
3	2740	9	2
3	2740	9	0
3	2743	9	0
3	2743	9	0
3	2783	9.001504442588	0
3	2783	9.001504442588	0
3	2800	9.10806524337	0
3	2800	9.10806524337	0
3	2818	9.10822924337	0
3	2818	9.10822924337	0
3	2828	9.197627004609	0
3	2828	9.197627004609	2
3	2829	9.197627004609	2
3	2829	9.197627004609	0
3	2832	9.197627004609	0
3	2832	9.197627004609	0
3	2874	9.199131455557	0
3	2874	9.199131455557	0
3	2884	9.199300455557	0
3	2884	9.199300455557	0
3	2894	9.200744455557	0
3	2894	9.200744455557	0
3	2901	9.200760455557	0
3	2901	9.200760455557	0
3	2913	9.200804455557	0
3	2913	9.200804455557	0
3	2939	9.300517953811	0
3	2939	9.300517953811	0
3	2957	9.300693953811	0
3	2957	9.300693953811	0
3	2971	9.308984069316	0
3	2971	9.308984069316	0
3	2977	9.309160069316	0
3	2977	9.309160069316	0
3	3013	9.460748932835	0
3	3013	9.460748932835	0
3	3031	9.460912932835	0
3	3031	9.460912932835	0
3	3041	9.497627004609	0
3	3041	9.497627004609	2
3	3042	9.497627004609	2
3	3042	9.497627004609	0
3	3045	9.497627004609	0
3	3045	9.497627004609	0
3	3087	9.499131480499	0
3	3087	9.499131480499	0
3	3097	9.499228480499	0
3	3097	9.499228480499	0
3	3103	9.5	0
3	3103	9.5	1
3	3112	9.500672480499	1
3	3112	9.500672480499	2
3	3119	9.500688480499	2
3	3119	9.500688480499	1
3	3131	9.500732480499	1
3	3131	9.500732480499	2
3	3140	9.500784480499	2
3	3140	9.500784480499	0
3	3143	9.500784480499	0
3	3143	9.500784480499	0
3	3183	9.502288964735	0
3	3183	9.502288964735	0
3	3201	9.797627004609	0
3	3201	9.797627004609	2
3	3202	9.797627004609	2
3	3202	9.797627004609	0
3	3205	9.797627004609	0
3	3205	9.797627004609	0
3	3254	9.799131505491	0
3	3254	9.799131505491	0
3	3265	9.799183505491	0
3	3265	9.799183505491	0
3	3277	9.800627505491	0
3	3277	9.800627505491	0
3	3284	9.800643505491	0
3	3284	9.800643505491	0
3	3298	9.800687505491	0
3	3298	9.800687505491	0
3	3322	10	0
3	3322	10	2
3	3323	10	2
3	3323	10	0
3	3326	10	0
3	3326	10	0
3	3380	10.001504529896	0
3	3380	10.001504529896	0
3	3388	10.097627004609	0
3	3388	10.097627004609	2
3	3389	10.097627004609	2
3	3389	10.097627004609	0
3	3392	10.097627004609	0
3	3392	10.097627004609	0
3	3448	10.099131534505	0
3	3448	10.099131534505	0
3	3460	10.099264534505	0
3	3460	10.099264534505	0
3	3474	10.100708534505	0
3	3474	10.100708534505	0
3	3481	10.100724534505	0
3	3481	10.100724534505	0
3	3497	10.100768534505	0
3	3497	10.100768534505	0
3	3522	10.397627004609	0
3	3522	10.397627004609	2
3	3523	10.397627004609	2
3	3523	10.397627004609	0
3	3526	10.397627004609	0
3	3526	10.397627004609	0
3	3582	10.399131558719	0
3	3582	10.399131558719	0
3	3594	10.399174558719	0
3	3594	10.399174558719	0
3	3608	10.400618558719	0
3	3608	10.400618558719	0
3	3615	10.400634558719	0
3	3615	10.400634558719	0
3	3631	10.400678558719	0
3	3631	10.400678558719	0
3	3662	10.434726833964	0
3	3662	10.434726833964	0
3	3690	10.434890833964	0
3	3690	10.434890833964	0
3	3703	10.5	0
3	3703	10.5	2
3	3704	10.5	2
3	3704	10.5	0
3	3707	10.5	0
3	3707	10.5	0
3	3761	10.501504563598	0
3	3761	10.501504563598	0
3	3770	10.680020019783	0
3	3770	10.680020019783	2
3	3771	10.680020019783	2
3	3771	10.680020019783	0
3	3774	10.680020019783	0
3	3774	10.680020019783	0
3	3783	10.680184019783	0
3	3783	10.680184019783	0
3	3825	10.682531988599	0
3	3825	10.682531988599	0
3	3833	10.682695988599	0
3	3833	10.682695988599	0
3	3871	10.697627004609	0
3	3871	10.697627004609	2
3	3872	10.697627004609	2
3	3872	10.697627004609	0
3	3875	10.697627004609	0
3	3875	10.697627004609	0
3	3931	10.699131570773	0
3	3931	10.699131570773	0
3	3943	10.699219570773	0
3	3943	10.699219570773	0
3	3957	10.700663570773	0
3	3957	10.700663570773	0
3	3964	10.700679570773	0
3	3964	10.700679570773	0
3	3980	10.700723570773	0
3	3980	10.700723570773	0
3	4014	10.882470763704	0
3	4014	10.882470763704	0
3	4042	10.882634763704	0
3	4042	10.882634763704	0
3	4055	10.997627004609	0
3	4055	10.997627004609	2
3	4056	10.997627004609	2
3	4056	10.997627004609	0
3	4059	10.997627004609	0
3	4059	10.997627004609	0
3	4115	10.999131574289	0
3	4115	10.999131574289	0
3	4127	10.999165574289	0
3	4127	10.999165574289	0
3	4133	11	0
3	4133	11	1
3	4146	11.000609574289	1
3	4146	11.000609574289	2
3	4153	11.000625574289	2
3	4153	11.000625574289	1
3	4169	11.000669574289	1
3	4169	11.000669574289	2
3	4182	11.000703574289	2
3	4182	11.000703574289	0
3	4185	11.000703574289	0
3	4185	11.000703574289	0
3	4239	11.002208144093	0
3	4239	11.002208144093	0
3	4262	11.163257277679	0
3	4262	11.163257277679	0
3	4290	11.163421277679	0
3	4290	11.163421277679	0
3	4303	11.297627004609	0
3	4303	11.297627004609	2
3	4304	11.297627004609	2
3	4304	11.297627004609	0
3	4307	11.297627004609	0
3	4307	11.297627004609	0
3	4363	11.299131575167	0
3	4363	11.299131575167	0
3	4375	11.299291575167	0
3	4375	11.299291575167	0
3	4389	11.300735575167	0
3	4389	11.300735575167	0
3	4396	11.300751575167	0
3	4396	11.300751575167	0
3	4412	11.300795575167	0
3	4412	11.300795575167	0
3	4439	11.5	0
3	4439	11.5	2
3	4440	11.5	2
3	4440	11.5	0
3	4443	11.5	0
3	4443	11.5	0
3	4497	11.501504572772	0
3	4497	11.501504572772	0
3	4507	11.597627004609	0
3	4507	11.597627004609	2
3	4508	11.597627004609	2
3	4508	11.597627004609	0
3	4511	11.597627004609	0
3	4511	11.597627004609	0
3	4567	11.599131577381	0
3	4567	11.599131577381	0
3	4579	11.599192577381	0
3	4579	11.599192577381	0
3	4594	11.600636577381	0
3	4594	11.600636577381	0
3	4601	11.600652577381	0
3	4601	11.600652577381	0
3	4617	11.600696577381	0
3	4617	11.600696577381	0
3	4643	11.646650935222	0
3	4643	11.646650935222	0
3	4651	11.646786935222	0
3	4651	11.646786935222	0
3	4685	11.668685351173	0
3	4685	11.668685351173	2
3	4686	11.668685351173	2
3	4686	11.668685351173	0
3	4689	11.668685351173	0
3	4689	11.668685351173	0
3	4698	11.668877351173	0
3	4698	11.668877351173	0
3	4742	11.897627004609	0
3	4742	11.897627004609	2
3	4743	11.897627004609	2
3	4743	11.897627004609	0
3	4746	11.897627004609	0
[...]
0	5203	12.200795585719	2
0	5228	12.256648255272	3
0	5237	12.256844255272	2
0	5330	12.497627004609	3
0	5339	12.499071004609	2
0	5424	12.500670591811	3
0	5440	12.500714591811	2
0	5456	12.500775591811	3
0	5465	12.502219591811	2
0	5628	12.797627004609	3
0	5637	12.799071004609	2
0	5717	12.800670599145	3
0	5733	12.800714599145	2
0	5764	13	3
0	5773	13.001444	2
0	5835	13.097627004609	3
0	5844	13.099071004609	2
0	5924	13.100697607721	3
0	5940	13.100741607721	2
0	5971	13.397627004609	3
0	5980	13.399071004609	2
0	6060	13.400643617399	3
0	6076	13.400687617399	2
0	6151	13.5	3
0	6160	13.501444	2
0	6273	13.697627004609	3
0	6283	13.699071004609	2
0	6372	13.700760628201	3
0	6390	13.700804628201	2
0	6421	13.793217871011	3
0	6431	13.793393871011	2
0	6534	13.997627004609	3
0	6544	13.999071004609	2
0	6638	14.000652640053	3
0	6656	14.000696640053	2
0	6674	14.000865640053	3
0	6684	14.002309640053	2
0	6865	14.297627004609	3
0	6875	14.299071004609	2
0	6964	14.300742652847	3
0	6982	14.300786652847	2
0	7018	14.5	3
0	7030	14.501444	2
0	7105	14.597627004609	3
0	7117	14.599071004609	2
0	7224	14.600697666599	3
0	7246	14.600741666599	2
0	7352	14.897627004609	3
0	7364	14.899071004609	2
0	7471	14.900679681229	3
0	7493	14.900723681229	2
0	7526	15	3
0	7538	15.001444	2
0	7618	15.197627004609	3
0	7630	15.199071004609	2
0	7737	15.200697696627	3
0	7759	15.200741696627	2
0	7944	15.497627004609	3
0	7956	15.499071004609	2
0	8068	15.500670712895	3
0	8090	15.500714712895	2
0	8112	15.500775712895	3
0	8124	15.502219712895	2
0	8275	15.797627004609	3
0	8287	15.799071004609	2
0	8394	15.800751729831	3
0	8416	15.800795729831	2
0	8585	15.873809030069	3
0	8597	15.873985030069	2
0	8656	16	3
0	8668	16.001444	2
0	8812	16.097627004609	3
0	8825	16.099071004609	2
0	8932	16.100634747355	3
0	8954	16.100678747355	2
0	9057	16.397627004609	3
0	9069	16.399071004609	2
0	9176	16.400724765599	3
0	9198	16.400768765599	2
0	9373	16.5	3
0	9385	16.501444	2
0	9661	16.571079902956	3
0	9673	16.571271902956	2
0	9744	16.697627004609	3
0	9756	16.699071004609	2
0	9863	16.700742784409	3
0	9885	16.700786784409	2
0	9926	16.997627004609	3
0	9938	16.999071004609	2
0	10050	17.000670803641	3
0	10072	17.000714803641	2
0	10094	17.000856803641	3
0	10106	17.002300803641	2
0	10389	17.297627004609	3
0	10401	17.299071004609	2
0	10508	17.300724823563	3
0	10530	17.300768823563	2
0	10564	17.387113668279	3
0	10576	17.387325668279	2
0	10699	17.5	3
0	10711	17.501444	2
0	10855	17.597627004609	3
0	10867	17.599071004609	2
0	10974	17.600625842547	3
0	10996	17.600669842547	2
0	11161	17.897627004609	3
0	11173	17.899071004609	2
0	11280	17.900724849021	3
0	11302	17.900768849021	2
0	11407	18	3
0	11419	18.001444	2
0	11508	18.197627004609	3
0	11520	18.199071004609	2
0	11627	18.200697840623	3
0	11649	18.200741840623	2
0	11910	18.497627004609	3
0	11923	18.499071004609	2
0	12044	18.500724825939	3
0	12068	18.500768825939	2
0	12092	18.500901825939	3
0	12105	18.502345825939	2
0	12280	18.797627004609	3
0	12293	18.799071004609	2
0	12409	18.800688811147	3
0	12432	18.800732811147	2
0	12469	19	3
0	12482	19.001444	2
0	12637	19.097627004609	3
0	12650	19.099071004609	2
0	12766	19.100733797287	3
0	12789	19.100777797287	2
0	12823	19.227609079702	3
0	12836	19.227801079702	2
0	13046	19.397627004609	3
0	13059	19.399071004609	2
0	13175	19.400643784309	3
0	13198	19.400687784309	2
0	13312	19.5	3
0	13325	19.501444	2
0	13414	19.697627004609	3
0	13427	19.699071004609	2
0	13543	19.700697772329	3
0	13566	19.700741772329	2
0	13850	19.997627004609	3
0	13864	19.999071004609	2
0	13994	20.000724761411	3
0	14019	20.000768761411	2
0	14046	20.000865761411	3
0	14060	20.002309761411	2
0	14244	20.297627004609	3
0	14258	20.299071004609	2
0	14384	20.300634751559	3
0	14409	20.300678751559	2
0	14606	20.5	3
0	14620	20.501444	2
0	14867	20.597627004609	3
0	14881	20.599071004609	2
0	15006	20.600643742843	3
0	15031	20.600687742843	2
0	15159	20.842748108925	3
0	15173	20.842964108925	2
0	15239	20.897627004609	3
0	15253	20.899071004609	2
0	15378	20.900733735285	3
0	15403	20.900777735285	2
0	15440	21	3
0	15454	21.001444	2
0	15709	21.197627004609	3
0	15723	21.199071004609	2
0	15848	21.200679728905	3
0	15873	21.200723728905	2
0	16404	21.497627004609	3
0	16418	21.499071004609	2
0	16548	21.500706723765	3
0	16572	21.500750723765	2
0	16600	21.500793723765	3
0	16614	21.502237723765	2
0	16954	21.797627004609	3
0	16969	21.799071004609	2
0	17094	21.800679719875	3
0	17118	21.800723719875	2
0	17345	22	3
0	17359	22.001444	2
0	17613	22.097627004609	3
0	17627	22.099071004609	2
0	17752	22.100715717261	3
0	17776	22.100759717261	2
0	17984	22.397627004609	3
0	17998	22.399071004609	2
0	18123	22.400760715941	3
0	18147	22.400804715941	2
0	18264	22.5	3
0	18278	22.501444	2
0	18460	22.545627206702	3
0	18474	22.545827206702	2
0	18782	22.697627004609	3
0	18796	22.699071004609	2
0	18921	22.700643715919	3
0	18945	22.700687715919	2
0	19068	22.997627004609	3
0	19082	22.999071004609	2
0	19212	23.000661717187	3
0	19236	23.000705717187	2
0	19264	23.000748717187	3
0	19278	23.002192717187	2
0	19461	23.297627004609	3
0	19475	23.299071004609	2
0	19600	23.300679719745	3
0	19625	23.300723719745	2
0	19829	23.5	3
0	19843	23.501444	2
0	19939	23.597627004609	3
0	19953	23.599071004609	2
0	20078	23.600661723593	3
0	20103	23.600705723593	2
0	20396	23.897627004609	3
0	20410	23.899071004609	2
0	20535	23.900742728673	3
0	20560	23.900786728673	2
0	20607	24	3
0	20621	24.001444	2
0	20707	24.018529369052	3
0	20721	24.018729369052	2
0	20944	24.197627004609	3
0	20958	24.199071004609	2
0	21083	24.200679734987	3
0	21108	24.200723734987	2
0	21255	24.497627004609	3
0	21269	24.499071004609	2
0	21399	24.500724742501	3
0	21424	24.500768742501	2
0	21451	24.500928742501	3
0	21465	24.502372742501	2
0	21726	24.797627004609	3
0	21740	24.799071004609	2
0	21865	24.800724749781	3
0	21890	24.800768749781	2
0	22085	25	3
0	22103	25.001444	2
0	22353	25.097627004609	3
0	22371	25.099071004609	2
0	22569	25.100886888943	3
0	22595	25.100930888943	2
0	22813	25.397627004609	3
0	22827	25.399071004609	2
0	22952	25.400661739603	3
0	22978	25.400705739603	2
0	23021	25.5	3
0	23035	25.501444	2
0	23361	25.697627004609	3
0	23375	25.699071004609	2
0	23500	25.700643716069	3
0	23524	25.700687716069	2
0	23560	25.717009954992	3
0	23574	25.717233954992	2
0	23829	25.997627004609	3
0	23843	25.999071004609	2
0	23973	26.000715691507	3
0	23997	26.000759691507	2
0	24025	26.000910691507	3
0	24039	26.002354691507	2
0	24537	26.297627004609	3
0	24551	26.299071004609	2
0	24676	26.300643668013	3
0	24700	26.300687668013	2
0	24988	26.5	3
0	25002	26.501444	2
0	25343	26.597627004609	3
0	25357	26.599071004609	2
0	25486	26.600742644855	3
0	25510	26.600786644855	2
0	25658	26.897627004609	3
0	25672	26.899071004609	2
0	25797	26.900724622063	3
0	25821	26.900768622063	2
0	25942	27	3
0	25956	27.001444	2
0	26233	27.197627004609	3
0	26247	27.199071004609	2
0	26372	27.200751599749	3
0	26396	27.200795599749	2
0	26763	27.469888934888	3
0	26777	27.470088934888	2
0	26842	27.497627004609	3
0	26856	27.499071004609	2
0	26986	27.500670577899	3
0	27010	27.500714577899	2
0	27038	27.500793577899	3
0	27052	27.502237577899	2
0	27315	27.797627004609	3
0	27329	27.799071004609	2
0	27454	27.800760556519	3
0	27477	27.800804556519	2
0	27616	28	3
0	27630	28.001444	2
0	27738	28.097627004609	3
0	27752	28.099071004609	2
0	27877	28.100751535807	3
0	27900	28.100795535807	2
0	28019	28.397627004609	3
0	28033	28.399071004609	2
0	28158	28.400679515677	3
0	28181	28.400723515677	2
0	28231	28.5	3
0	28245	28.501444	2
0	28379	28.697627004609	3
0	28393	28.699071004609	2
0	28518	28.700670496389	3
0	28541	28.700714496389	2
0	28748	28.937802050634	3
0	28762	28.938002050634	2
0	28906	28.997627004609	3
0	28920	28.999071004609	2
0	29050	29.000688477929	3
0	29073	29.000732477929	2
0	29102	29.000811477929	3
0	29116	29.002255477929	2
0	29302	29.297627004609	3
0	29316	29.299071004609	2
0	29441	29.300742460403	3
0	29464	29.300786460403	2
0	29841	29.5	3
0	29855	29.501444	2
0	29942	29.597627004609	3
0	29956	29.599071004609	2
0	30081	29.600661444017	3
0	30104	29.600705444017	2
0	30414	29.897627004609	3
0	30428	29.899071004609	2
0	30553	29.900688428729	3
0	30576	29.900732428729	2
0	30616	30	3
0	30630	30.001444	2
0	30821	30.197627004609	3
0	30835	30.199071004609	2
0	30960	30.200760414751	3
0	30983	30.200804414751	2
0	31114	30.497627004609	3
0	31128	30.499071004609	2
0	31258	30.500751402283	3
0	31281	30.500795402283	2
0	31310	30.500928402283	3
0	31328	30.502372402283	2
0	31586	30.686081009823	3
0	31600	30.686305009823	2
0	31754	30.797627004609	3
0	31768	30.799071004609	2
0	31893	30.800634391409	3
0	31916	30.800678391409	2
0	32438	31	3
0	32452	31.001444	2
0	32705	31.097627004609	3
0	32719	31.099071004609	2
0	32854	31.100733382277	3
0	32877	31.100777382277	2
0	33165	31.397627004609	3
0	33179	31.399071004609	2
0	33304	31.400670375001	3
0	33326	31.400714375001	2
0	33449	31.5	3
0	33463	31.501444	2
0	33685	31.697627004609	3
0	33699	31.699071004609	2
0	33824	31.700661369693	3
0	33846	31.700705369693	2
0	34078	31.997627004609	3
0	34092	31.999071004609	2
1	2	0.1	0
8	10	0.5	1000
8	20	1	1000
8	44	1.5	1000
8	61	2	1000
8	94	2.5	1000
8	112	3	1000
8	130	3.5	1000
8	240	4	1000
8	412	4.5	1000
8	566	5	1000
8	774	5.5	1000
8	1072	6	1000
8	1291	6.5	1000
8	1568	7	1000
8	1906	7.5	1000
8	2235	8	1000
8	2435	8.5	1000
8	2734	9	1000
8	3098	9.5	1000
8	3317	10	1000
8	3698	10.5	1000
8	4128	11	1000
8	4434	11.5	1000
8	4920	12	1000
8	5399	12.5	1000
8	5755	13	1000
8	6142	13.5	1000
8	6611	14	1000
8	7003	14.5	1000
8	7517	15	1000
8	8037	15.5	1000
8	8647	16	1000
8	9362	16.5	1000
8	10019	17	1000
8	10690	17.5	1000
8	11398	18	1000
8	12011	18.5	1000
8	12460	19	1000
8	13303	19.5	1000
8	13959	20	1000
8	14597	20.5	1000
8	15431	21	1000
8	16513	21.5	1000
8	17336	22	1000
8	18255	22.5	1000
8	19177	23	1000
8	19820	23.5	1000
8	20598	24	1000
8	21364	24.5	1000
8	22076	25	1000
8	23012	25.5	1000
8	23938	26	1000
8	24979	26.5	1000
8	25933	27	1000
8	26951	27.5	1000
8	27607	28	1000
8	28222	28.5	1000
8	29015	29	1000
8	29832	29.5	1000
8	30607	30	1000
8	31223	30.5	1000
8	32429	31	1000
8	33440	31.5	1000
8	34187	32	1000
9	13	0.5	1008
9	22	1	1008
9	46	1.5	1008
9	63	2	1008
9	96	2.5	1008
9	114	3	1008
9	132	3.5	1008
9	242	4	1008
9	414	4.5	1008
9	568	5	1008
9	776	5.5	1008
9	1074	6	1008
9	1293	6.5	1008
9	1570	7	1008
9	1908	7.5	1008
9	2237	8	1008
9	2437	8.5	1008
9	2736	9	1008
9	3100	9.5	1008
9	3319	10	1008
9	3700	10.5	1008
9	4130	11	1008
9	4436	11.5	1008
9	4922	12	1008
9	5401	12.5	1008
9	5757	13	1008
9	6144	13.5	1008
9	6613	14	1008
9	7005	14.5	1008
9	7519	15	1008
9	8039	15.5	1008
9	8649	16	1008
9	9366	16.5	1008
9	10021	17	1008
9	10692	17.5	1008
9	11400	18	1008
9	12013	18.5	1008
9	12462	19	1008
9	13305	19.5	1008
9	13961	20	1008
9	14599	20.5	1008
9	15433	21	1008
9	16515	21.5	1008
9	17338	22	1008
9	18257	22.5	1008
9	19179	23	1008
9	19822	23.5	1008
9	20600	24	1008
9	21366	24.5	1008
9	22078	25	1008
9	23014	25.5	1008
9	23940	26	1008
9	24981	26.5	1008
9	25935	27	1008
9	26953	27.5	1008
9	27609	28	1008
9	28224	28.5	1008
9	29017	29	1008
9	29834	29.5	1008
9	30609	30	1008
9	31225	30.5	1008
9	32431	31	1008
9	33442	31.5	1008
39	335	4.100636100639	10
39	397	4.400672113573	11
39	490	4.700690127615	12
39	583	5.000609142849	13
39	714	5.300735159133	14
39	902	5.600609176629	15
39	1045	5.900654195241	16
39	1201	6.200618214993	17
39	1310	6.500645235899	18
39	1462	6.800618258037	19
39	1734	7.100708281433	20
39	1879	7.400744305899	21
39	2071	7.700636330837	22
39	2254	8.000654355661	23
39	2406	8.300636380519	24
39	2563	8.600735405529	25
39	2707	8.900726430499	26
39	2899	9.200744455557	27
39	3117	9.500672480499	28
39	3282	9.800627505491	29
39	3479	10.100708534505	30
39	3613	10.400618558719	31
39	3962	10.700663570773	32
39	4151	11.000609574289	33
39	4394	11.300735575167	34
39	4599	11.600636577381	35
39	4834	11.900681580919	36
39	5185	12.200735585719	37
39	5422	12.500654591811	38
39	5715	12.800654599145	39
39	5922	13.100681607721	40
39	6058	13.400627617399	41
39	6370	13.700744628201	42
39	6636	14.000636640053	43
39	6962	14.300726652847	44
39	7222	14.600681666599	45
39	7469	14.900663681229	46
39	7735	15.200681696627	47
39	8066	15.500654712895	48
39	8392	15.800735729831	49
39	8930	16.100618747355	50
39	9174	16.400708765599	51
39	9861	16.700726784409	52
39	10048	17.000654803641	53
39	10506	17.300708823563	54
39	10972	17.600609842547	55
39	11278	17.900708849021	56
39	11625	18.200681840623	57
39	12042	18.500708825939	58
39	12405	18.800672811147	59
39	12762	19.100717797287	60
39	13171	19.400627784309	61
39	13539	19.700681772329	62
39	13990	20.000708761411	63
39	14380	20.300618751559	64
39	15002	20.600627742843	65
39	15374	20.900717735285	66
39	15844	21.200663728905	67
39	16542	21.500690723765	68
39	17088	21.800663719875	69
39	17746	22.100699717261	70
39	18117	22.400744715941	71
39	18915	22.700627715919	72
39	19206	23.000645717187	73
39	19596	23.300663719745	74
39	20074	23.600645723593	75
39	20531	23.900726728673	76
39	21079	24.200663734987	77
39	21395	24.500708742501	78
39	21861	24.800708749781	79
39	22567	25.100870888943	80
39	22950	25.400645739603	81
39	23494	25.700627716069	82
39	23967	26.000699691507	83
39	24670	26.300627668013	84
39	25480	26.600726644855	85
39	25791	26.900708622063	86
39	26366	27.200735599749	87
39	26980	27.500654577899	88
39	27446	27.800744556519	89
39	27869	28.100735535807	90
39	28150	28.400663515677	91
39	28510	28.700654496389	92
39	29042	29.000672477929	93
39	29433	29.300726460403	94
39	30073	29.600645444017	95
39	30545	29.900672428729	96
39	30952	30.200744414751	97
39	31250	30.500735402283	98
39	31885	30.800618391409	99
39	32846	31.100717382277	100
39	33294	31.400654375001	101
39	33814	31.700645369693	102
10	25	1.097627004609	0
10	39	1.397627004609	1
10	50	1.697627004609	2
10	57	1.997627004609	3
10	69	2.297627004609	4
10	100	2.597627004609	5
10	107	2.897627004609	6
10	118	3.197627004609	7
10	126	3.497627004609	8
10	156	3.797627004609	9
10	290	4.097627004609	10
10	352	4.397627004609	11
10	445	4.697627004609	12
10	513	4.997627004609	13
10	649	5.297627004609	14
10	827	5.597627004609	15
10	970	5.897627004609	16
10	1126	6.197627004609	17
10	1230	6.497627004609	18
10	1387	6.797627004609	19
10	1659	7.097627004609	20
10	1803	7.397627004609	21
10	1996	7.697627004609	22
10	2174	7.997627004609	23
10	2331	8.297627004609	24
10	2488	8.597627004609	25
10	2632	8.897627004609	26
10	2824	9.197627004609	27
10	3037	9.497627004609	28
10	3197	9.797627004609	29
10	3384	10.097627004609	30
10	3518	10.397627004609	31
10	3867	10.697627004609	32
10	4051	10.997627004609	33
10	4299	11.297627004609	34
10	4503	11.597627004609	35
10	4738	11.897627004609	36
10	5090	12.197627004609	37
10	5322	12.497627004609	38
10	5620	12.797627004609	39
10	5827	13.097627004609	40
10	5963	13.397627004609	41
10	6265	13.697627004609	42
10	6526	13.997627004609	43
10	6857	14.297627004609	44
10	7097	14.597627004609	45
10	7344	14.897627004609	46
10	7610	15.197627004609	47
10	7936	15.497627004609	48
10	8267	15.797627004609	49
10	8804	16.097627004609	50
10	9049	16.397627004609	51
10	9736	16.697627004609	52
10	9918	16.997627004609	53
10	10381	17.297627004609	54
10	10847	17.597627004609	55
10	11153	17.897627004609	56
10	11500	18.197627004609	57
10	11902	18.497627004609	58
10	12272	18.797627004609	59
10	12629	19.097627004609	60
10	13038	19.397627004609	61
10	13406	19.697627004609	62
10	13842	19.997627004609	63
10	14236	20.297627004609	64
10	14859	20.597627004609	65
10	15231	20.897627004609	66
10	15701	21.197627004609	67
10	16396	21.497627004609	68
10	16946	21.797627004609	69
10	17605	22.097627004609	70
10	17976	22.397627004609	71
10	18774	22.697627004609	72
10	19060	22.997627004609	73
10	19453	23.297627004609	74
10	19931	23.597627004609	75
10	20388	23.897627004609	76
10	20936	24.197627004609	77
10	21247	24.497627004609	78
10	21718	24.797627004609	79
10	22345	25.097627004609	80
10	22805	25.397627004609	81
10	23353	25.697627004609	82
10	23821	25.997627004609	83
10	24529	26.297627004609	84
10	25335	26.597627004609	85
10	25650	26.897627004609	86
10	26225	27.197627004609	87
10	26834	27.497627004609	88
10	27307	27.797627004609	89
10	27730	28.097627004609	90
10	28011	28.397627004609	91
10	28371	28.697627004609	92
10	28898	28.997627004609	93
10	29294	29.297627004609	94
10	29934	29.597627004609	95
10	30406	29.897627004609	96
10	30813	30.197627004609	97
10	31106	30.497627004609	98
10	31746	30.797627004609	99
10	32697	31.097627004609	100
10	33157	31.397627004609	101
10	33677	31.697627004609	102
10	34070	31.997627004609	103
41	335	4.100636100639	10
40	335	4.100636100639	0.00300909603
40	397	4.400672113573	0.003045108964
40	490	4.700690127615	0.003063123006
40	583	5.000609142849	0.00298213824
40	714	5.300735159133	0.003108154524
40	902	5.600609176629	0.00298217202
40	1045	5.900654195241	0.003027190632
40	1201	6.200618214993	0.002991210384
40	1310	6.500645235899	0.00301823129
40	1462	6.800618258037	0.002991253428
40	1734	7.100708281433	0.003081276824
40	1879	7.400744305899	0.00311730129
40	2071	7.700636330837	0.003009326228
40	2254	8.000654355661	0.003027351052
40	2406	8.300636380519	0.00300937591
40	2563	8.600735405529	0.00310840092
40	2707	8.900726430499	0.00309942589
40	2899	9.200744455557	0.003117450948
40	3117	9.500672480499	0.00304547589
40	3282	9.800627505491	0.003000500882
40	3479	10.100708534505	0.003081529896
40	3613	10.400618558719	0.00299155411
40	3962	10.700663570773	0.003036566164
40	4151	11.000609574289	0.00298256968
40	4394	11.300735575167	0.003108570558
40	4599	11.600636577381	0.003009572772
40	4834	11.900681580919	0.00305457631
40	5185	12.200735585719	0.00310858111
40	5422	12.500654591811	0.003027587202
40	5715	12.800654599145	0.003027594536
40	5922	13.100681607721	0.003054603112
40	6058	13.400627617399	0.00300061279
40	6370	13.700744628201	0.003117623592
40	6636	14.000636640053	0.003009635444
40	6962	14.300726652847	0.003099648238
40	7222	14.600681666599	0.00305466199
40	7469	14.900663681229	0.00303667662
40	7735	15.200681696627	0.003054692018
40	8066	15.500654712895	0.003027708286
40	8392	15.800735729831	0.003108725222
40	8930	16.100618747355	0.002991742746
40	9174	16.400708765599	0.00308176099
40	9861	16.700726784409	0.0030997798
40	10048	17.000654803641	0.003027799032
40	10506	17.300708823563	0.003081818954
40	10972	17.600609842547	0.002982837938
40	11278	17.900708849021	0.003081844412
40	11625	18.200681840623	0.003054836014
40	12042	18.500708825939	0.00308182133
40	12405	18.800672811147	0.003045806538
40	12762	19.100717797287	0.003090792678
40	13171	19.400627784309	0.0030007797
40	13539	19.700681772329	0.00305476772
40	13990	20.000708761411	0.003081756802
40	14380	20.300618751559	0.00299174695
40	15002	20.600627742843	0.003000738234
40	15374	20.900717735285	0.003090730676
40	15844	21.200663728905	0.003036724296
40	16542	21.500690723765	0.003063719156
40	17088	21.800663719875	0.003036715266
40	17746	22.100699717261	0.003072712652
40	18117	22.400744715941	0.003117711332
40	18915	22.700627715919	0.00300071131
40	19206	23.000645717187	0.003018712578
40	19596	23.300663719745	0.003036715136
40	20074	23.600645723593	0.003018718984
40	20531	23.900726728673	0.003099724064
40	21079	24.200663734987	0.003036730378
40	21395	24.500708742501	0.003081737892
40	21861	24.800708749781	0.003081745172
40	22567	25.100870888943	0.003243884334
40	22950	25.400645739603	0.003018734994
40	23494	25.700627716069	0.00300071146
40	23967	26.000699691507	0.003072686898
40	24670	26.300627668013	0.003000663404
40	25480	26.600726644855	0.003099640246
40	25791	26.900708622063	0.003081617454
40	26366	27.200735599749	0.00310859514
40	26980	27.500654577899	0.00302757329
40	27446	27.800744556519	0.00311755191
40	27869	28.100735535807	0.003108531198
40	28150	28.400663515677	0.003036511068
40	28510	28.700654496389	0.00302749178
40	29042	29.000672477929	0.00304547332
40	29433	29.300726460403	0.003099455794
40	30073	29.600645444017	0.003018439408
40	30545	29.900672428729	0.00304542412
40	30952	30.200744414751	0.003117410142
40	31250	30.500735402283	0.003108397674
40	31885	30.800618391409	0.0029913868
40	32846	31.100717382277	0.003090377668
40	33294	31.400654375001	0.003027370392
40	33814	31.700645369693	0.003018365084
